Compound 21_1_01
haSeeSAR  07122114523D 1   1.00000     0.00000     0
SeeSAR 11.0.2 hazemaj
 51 53  0  0  0  0            999 V2000
   18.6324  -17.5000    8.1030 Cl  0  0  0  0  0  0  0  0  0  0  0  0
   18.5085  -15.9931    7.1637 C   0  0  0  0  0  0  0  0  0  0  0  0
   17.3226  -15.6942    6.5012 C   0  0  0  0  0  0  0  0  0  0  0  0
   19.5997  -15.1327    7.1036 C   0  0  0  0  0  0  0  0  0  0  0  0
   17.2399  -14.5130    5.7711 C   0  0  0  0  0  0  0  0  0  0  0  0
   19.4952  -13.9572    6.3675 C   0  0  0  0  0  0  0  0  0  0  0  0
   18.3189  -13.6382    5.6972 C   0  0  0  0  0  0  0  0  0  0  0  0
   15.9481  -14.1782    5.0430 C   0  0  0  0  0  0  0  0  0  0  0  0
   16.0726  -12.8594    4.4056 N   0  0  0  0  0  0  0  0  0  0  0  0
   16.3935  -12.7665    3.0459 C   0  0  0  0  0  0  0  0  0  0  0  0
   15.8814  -11.7602    5.1167 C   0  0  0  0  0  0  0  0  0  0  0  0
   17.7272  -12.7900    2.6509 C   0  0  0  0  0  0  0  0  0  0  0  0
   15.3708  -12.6506    2.1100 C   0  0  0  0  0  0  0  0  0  0  0  0
   16.1808  -10.6629    4.6461 O   0  0  0  0  0  0  0  0  0  0  0  0
   15.2919  -11.8526    6.5147 C   0  0  0  0  0  0  0  0  0  0  0  0
   18.0439  -12.6960    1.2994 C   0  0  0  0  0  0  0  0  0  0  0  0
   15.6910  -12.5572    0.7597 C   0  0  0  0  0  0  0  0  0  0  0  0
   13.7777  -11.7461    6.4342 C   0  0  0  0  0  0  0  0  0  0  0  0
   17.0233  -12.5799    0.3611 C   0  0  0  0  0  0  0  0  0  0  0  0
   13.0094  -10.5636    6.5216 C   0  0  0  0  0  0  0  0  0  0  0  0
   12.9037  -12.7810    6.2648 C   0  0  0  0  0  0  0  0  0  0  0  0
   17.3720  -12.4778   -1.1155 C   0  0  0  0  0  0  0  0  0  0  0  0
   11.7533  -10.9316    6.4001 N   0  0  0  0  0  0  0  0  0  0  0  0
   11.6476  -12.2433    6.2533 N   0  0  0  0  0  0  0  0  0  0  0  0
   16.8596  -13.7105   -1.8424 C   0  0  0  0  0  0  0  0  0  0  0  0
   16.7228  -11.2360   -1.7044 C   0  0  0  0  0  0  0  0  0  0  0  0
   18.8807  -12.3855   -1.2761 C   0  0  0  0  0  0  0  0  0  0  0  0
   16.5426  -16.3180    6.5489 H   0  0  0  0  0  0  0  0  0  0  0  0
   20.4483  -15.3564    7.5831 H   0  0  0  0  0  0  0  0  0  0  0  0
   20.2755  -13.3337    6.3196 H   0  0  0  0  0  0  0  0  0  0  0  0
   18.2499  -12.7916    5.1694 H   0  0  0  0  0  0  0  0  0  0  0  0
   15.1916  -14.1625    5.6966 H   0  0  0  0  0  0  0  0  0  0  0  0
   15.7704  -14.8709    4.3440 H   0  0  0  0  0  0  0  0  0  0  0  0
   18.4532  -12.8739    3.3336 H   0  0  0  0  0  0  0  0  0  0  0  0
   14.4155  -12.6347    2.4049 H   0  0  0  0  0  0  0  0  0  0  0  0
   15.6491  -11.1066    7.0770 H   0  0  0  0  0  0  0  0  0  0  0  0
   15.5431  -12.7291    6.9252 H   0  0  0  0  0  0  0  0  0  0  0  0
   18.9993  -12.7117    1.0042 H   0  0  0  0  0  0  0  0  0  0  0  0
   14.9650  -12.4739    0.0771 H   0  0  0  0  0  0  0  0  0  0  0  0
   13.3524   -9.6330    6.6502 H   0  0  0  0  0  0  0  0  0  0  0  0
   13.1382  -13.7483    6.1676 H   0  0  0  0  0  0  0  0  0  0  0  0
   17.0886  -13.6442   -2.8135 H   0  0  0  0  0  0  0  0  0  0  0  0
   17.2861  -14.5276   -1.4544 H   0  0  0  0  0  0  0  0  0  0  0  0
   15.8669  -13.7709   -1.7374 H   0  0  0  0  0  0  0  0  0  0  0  0
   16.9520  -11.1687   -2.6754 H   0  0  0  0  0  0  0  0  0  0  0  0
   15.7302  -11.2972   -1.5996 H   0  0  0  0  0  0  0  0  0  0  0  0
   17.0592  -10.4251   -1.2254 H   0  0  0  0  0  0  0  0  0  0  0  0
   19.1090  -12.3185   -2.2474 H   0  0  0  0  0  0  0  0  0  0  0  0
   19.2178  -11.5747   -0.7978 H   0  0  0  0  0  0  0  0  0  0  0  0
   19.3078  -13.2027   -0.8889 H   0  0  0  0  0  0  0  0  0  0  0  0
   10.9769  -10.3016    6.4164 H   0  0  0  0  0  0  0  0  0  0  0  0
  1  2  1  0  0  0  0
  2  3  2  0  0  0  0
  2  4  1  0  0  0  0
  3  5  1  0  0  0  0
  4  6  2  0  0  0  0
  5  7  2  0  0  0  0
  5  8  1  0  0  0  0
  8  9  1  0  0  0  0
  9 10  1  0  0  0  0
  9 11  1  0  0  0  0
 10 12  2  0  0  0  0
 10 13  1  0  0  0  0
 11 14  2  0  0  0  0
 11 15  1  0  0  0  0
 12 16  1  0  0  0  0
 13 17  2  0  0  0  0
 15 18  1  0  0  0  0
 16 19  2  0  0  0  0
 18 20  2  0  0  0  0
 18 21  1  0  0  0  0
 19 22  1  0  0  0  0
 20 23  1  0  0  0  0
 21 24  2  0  0  0  0
 22 25  1  0  0  0  0
 22 26  1  0  0  0  0
 22 27  1  0  0  0  0
  6  7  1  0  0  0  0
 17 19  1  0  0  0  0
 23 24  1  0  0  0  0
  3 28  1  0  0  0  0
  4 29  1  0  0  0  0
  6 30  1  0  0  0  0
  7 31  1  0  0  0  0
  8 32  1  0  0  0  0
  8 33  1  0  0  0  0
 12 34  1  0  0  0  0
 13 35  1  0  0  0  0
 15 36  1  0  0  0  0
 15 37  1  0  0  0  0
 16 38  1  0  0  0  0
 17 39  1  0  0  0  0
 20 40  1  0  0  0  0
 21 41  1  0  0  0  0
 23 51  1  0  0  0  0
 25 42  1  0  0  0  0
 25 43  1  0  0  0  0
 25 44  1  0  0  0  0
 26 45  1  0  0  0  0
 26 46  1  0  0  0  0
 26 47  1  0  0  0  0
 27 48  1  0  0  0  0
 27 49  1  0  0  0  0
 27 50  1  0  0  0  0
M  END
> <BIOSOLVEIT.HYDE_ESTIMATED_AFFINITY_LOWER_BOUNDARY [nM]>
19897.682804

> <BIOSOLVEIT.HYDE_ESTIMATED_AFFINITY_UPPER_BOUNDARY [nM]>
1976952.430956

> <BIOSOLVEIT.HYDE_LIGAND_EFFICIENCY range: ++, +, 0, -, -->
--

> <BIOSOLVEIT.HYDE_LIGAND_LIPOPHILIC_EFFICIENCY range: ++, +, 0, -, -->
--

> <BIOSOLVEIT.INTER_CLASH range: red, yellow, green>
green

> <BIOSOLVEIT.INTRA_CLASH range: red, yellow, green>
green

> <BIOSOLVEIT.LOGP>
5.1365

> <BIOSOLVEIT.MOLECULAR WEIGHT>
381.905

> <BIOSOLVEIT.MOLECULE_CHECKSUM>
LTIxLjEzNDU7MC43ODI3NTg=

> <BIOSOLVEIT.TORSION_QUALITY range: red, yellow, green, not rotatable>
green

> <BIOSOLVEIT.TPSA>
48.99

> <BIOSOLVEIT.SEESAR_FAVORITE>
favorite

> <smc_score>
0.563

> <QED_score>
0.665

> <distance>
0.562

> <SimilarityPheSA_1>
0.717

> <Smiles>
CC(C)(C)c1ccc(N(Cc2cccc(Cl)c2)C(=O)Cc2cn[nH]c2)cc1

> <Similarity_SkelSpheres>
0.732

> <Cluster No>
12.0

> <QueryID>
ALP-POS-6d04362c-2

> <SimilarityPheSA>
0.7168

> <Postera series>
3-aminopyridine-like

> <PDB_code>
Mpro-x12423

> <Approach>
DGM_focussed_RL

> <ID>
20210618_20

> <SimilarityPheSA_2>
0.685

> <OPTIBRIUM.logD>
4.86389

> <OPTIBRIUM.BBB category>
+

> <OPTIBRIUM.logP>
4.86389

> <OPTIBRIUM.P-gp category>
yes

> <OPTIBRIUM.logS>
0.613093

> <OPTIBRIUM.HIA category>
+

> <OPTIBRIUM.PPB90 category>
high

> <OPTIBRIUM.2D6 affinity category>
medium

> <OPTIBRIUM.hERG pIC50>
4.99929

> <OPTIBRIUM.2C9 pKi>
5.74258

> <OPTIBRIUM.BBB log([brain]:[blood])>
0.0303668

> <OPTIBRIUM.logS @ pH7.4>
0.613093

$$$$
Compound 21_1_05
haSeeSAR  07122114523D 1   1.00000     0.00000     0
SeeSAR 11.0.2 hazemaj
 51 53  0  0  0  0            999 V2000
   17.4052  -16.9309    6.8711 Cl  0  0  0  0  0  0  0  0  0  0  0  0
   16.3036  -16.6013    5.5125 C   0  0  0  0  0  0  0  0  0  0  0  0
   15.6287  -15.3864    5.4567 C   0  0  0  0  0  0  0  0  0  0  0  0
   16.1309  -17.5632    4.5228 C   0  0  0  0  0  0  0  0  0  0  0  0
   14.7711  -15.1421    4.3890 C   0  0  0  0  0  0  0  0  0  0  0  0
   15.2683  -17.2981    3.4644 C   0  0  0  0  0  0  0  0  0  0  0  0
   14.5832  -16.0899    3.3884 C   0  0  0  0  0  0  0  0  0  0  0  0
   14.0286  -13.8174    4.3200 C   0  0  0  0  0  0  0  0  0  0  0  0
   14.9759  -12.7408    3.9968 N   0  0  0  0  0  0  0  0  0  0  0  0
   15.5770  -12.6933    2.7330 C   0  0  0  0  0  0  0  0  0  0  0  0
   15.2606  -11.8169    4.8999 C   0  0  0  0  0  0  0  0  0  0  0  0
   16.7944  -13.3315    2.5206 C   0  0  0  0  0  0  0  0  0  0  0  0
   14.9461  -12.0054    1.7016 C   0  0  0  0  0  0  0  0  0  0  0  0
   15.6527  -10.7064    4.5417 O   0  0  0  0  0  0  0  0  0  0  0  0
   15.1036  -12.1267    6.3796 C   0  0  0  0  0  0  0  0  0  0  0  0
   17.3944  -13.2852    1.2662 C   0  0  0  0  0  0  0  0  0  0  0  0
   15.5433  -11.9576    0.4462 C   0  0  0  0  0  0  0  0  0  0  0  0
   13.8129  -11.5087    6.8925 C   0  0  0  0  0  0  0  0  0  0  0  0
   16.7608  -12.5967    0.2366 C   0  0  0  0  0  0  0  0  0  0  0  0
   12.8634  -10.7876    6.1344 C   0  0  0  0  0  0  0  0  0  0  0  0
   13.3551  -11.5465    8.1780 C   0  0  0  0  0  0  0  0  0  0  0  0
   17.4142  -12.5446   -1.1348 C   0  0  0  0  0  0  0  0  0  0  0  0
   11.9105  -10.4423    6.9714 N   0  0  0  0  0  0  0  0  0  0  0  0
   12.1692  -10.8680    8.1982 N   0  0  0  0  0  0  0  0  0  0  0  0
   17.1002  -13.8238   -1.8934 C   0  0  0  0  0  0  0  0  0  0  0  0
   16.8748  -11.3519   -1.9075 C   0  0  0  0  0  0  0  0  0  0  0  0
   18.9195  -12.4063   -0.9756 C   0  0  0  0  0  0  0  0  0  0  0  0
   15.7578  -14.6999    6.1723 H   0  0  0  0  0  0  0  0  0  0  0  0
   16.6203  -18.4338    4.5716 H   0  0  0  0  0  0  0  0  0  0  0  0
   15.1390  -17.9848    2.7490 H   0  0  0  0  0  0  0  0  0  0  0  0
   13.9643  -15.9052    2.6251 H   0  0  0  0  0  0  0  0  0  0  0  0
   13.5993  -13.6295    5.2035 H   0  0  0  0  0  0  0  0  0  0  0  0
   13.3249  -13.8662    3.6112 H   0  0  0  0  0  0  0  0  0  0  0  0
   17.2386  -13.8233    3.2695 H   0  0  0  0  0  0  0  0  0  0  0  0
   14.0708  -11.5490    1.8613 H   0  0  0  0  0  0  0  0  0  0  0  0
   15.8787  -11.7461    6.8839 H   0  0  0  0  0  0  0  0  0  0  0  0
   15.0741  -13.1175    6.5116 H   0  0  0  0  0  0  0  0  0  0  0  0
   18.2699  -13.7412    1.1066 H   0  0  0  0  0  0  0  0  0  0  0  0
   15.0990  -11.4656   -0.3026 H   0  0  0  0  0  0  0  0  0  0  0  0
   12.9074  -10.5812    5.1569 H   0  0  0  0  0  0  0  0  0  0  0  0
   13.8024  -11.9869    8.9566 H   0  0  0  0  0  0  0  0  0  0  0  0
   17.5298  -13.7901   -2.7958 H   0  0  0  0  0  0  0  0  0  0  0  0
   17.4543  -14.6084   -1.3846 H   0  0  0  0  0  0  0  0  0  0  0  0
   16.1099  -13.9143   -1.9989 H   0  0  0  0  0  0  0  0  0  0  0  0
   17.3045  -11.3173   -2.8098 H   0  0  0  0  0  0  0  0  0  0  0  0
   15.8846  -11.4433   -2.0131 H   0  0  0  0  0  0  0  0  0  0  0  0
   17.0804  -10.5103   -1.4079 H   0  0  0  0  0  0  0  0  0  0  0  0
   19.3485  -12.3722   -1.8783 H   0  0  0  0  0  0  0  0  0  0  0  0
   19.1260  -11.5649   -0.4763 H   0  0  0  0  0  0  0  0  0  0  0  0
   19.2743  -13.1911   -0.4674 H   0  0  0  0  0  0  0  0  0  0  0  0
   11.0946   -9.9243    6.7146 H   0  0  0  0  0  0  0  0  0  0  0  0
  1  2  1  0  0  0  0
  2  3  2  0  0  0  0
  2  4  1  0  0  0  0
  3  5  1  0  0  0  0
  4  6  2  0  0  0  0
  5  7  2  0  0  0  0
  5  8  1  0  0  0  0
  8  9  1  0  0  0  0
  9 10  1  0  0  0  0
  9 11  1  0  0  0  0
 10 12  2  0  0  0  0
 10 13  1  0  0  0  0
 11 14  2  0  0  0  0
 11 15  1  0  0  0  0
 12 16  1  0  0  0  0
 13 17  2  0  0  0  0
 15 18  1  0  0  0  0
 16 19  2  0  0  0  0
 18 20  2  0  0  0  0
 18 21  1  0  0  0  0
 19 22  1  0  0  0  0
 20 23  1  0  0  0  0
 21 24  2  0  0  0  0
 22 25  1  0  0  0  0
 22 26  1  0  0  0  0
 22 27  1  0  0  0  0
  6  7  1  0  0  0  0
 17 19  1  0  0  0  0
 23 24  1  0  0  0  0
  3 28  1  0  0  0  0
  4 29  1  0  0  0  0
  6 30  1  0  0  0  0
  7 31  1  0  0  0  0
  8 32  1  0  0  0  0
  8 33  1  0  0  0  0
 12 34  1  0  0  0  0
 13 35  1  0  0  0  0
 15 36  1  0  0  0  0
 15 37  1  0  0  0  0
 16 38  1  0  0  0  0
 17 39  1  0  0  0  0
 20 40  1  0  0  0  0
 21 41  1  0  0  0  0
 23 51  1  0  0  0  0
 25 42  1  0  0  0  0
 25 43  1  0  0  0  0
 25 44  1  0  0  0  0
 26 45  1  0  0  0  0
 26 46  1  0  0  0  0
 26 47  1  0  0  0  0
 27 48  1  0  0  0  0
 27 49  1  0  0  0  0
 27 50  1  0  0  0  0
M  END
> <BIOSOLVEIT.HYDE_ESTIMATED_AFFINITY_LOWER_BOUNDARY [nM]>
12703.717248

> <BIOSOLVEIT.HYDE_ESTIMATED_AFFINITY_UPPER_BOUNDARY [nM]>
1262189.418877

> <BIOSOLVEIT.HYDE_LIGAND_EFFICIENCY range: ++, +, 0, -, -->
--

> <BIOSOLVEIT.HYDE_LIGAND_LIPOPHILIC_EFFICIENCY range: ++, +, 0, -, -->
--

> <BIOSOLVEIT.INTER_CLASH range: red, yellow, green>
green

> <BIOSOLVEIT.INTRA_CLASH range: red, yellow, green>
green

> <BIOSOLVEIT.LOGP>
5.1365

> <BIOSOLVEIT.MOLECULAR WEIGHT>
381.905

> <BIOSOLVEIT.MOLECULE_CHECKSUM>
LTIyLjI0Njg7MC44MjM5NTY=

> <BIOSOLVEIT.TORSION_QUALITY range: red, yellow, green, not rotatable>
yellow

> <BIOSOLVEIT.TPSA>
48.99

> <BIOSOLVEIT.SEESAR_FAVORITE>
favorite

> <smc_score>
0.563

> <QED_score>
0.665

> <distance>
0.562

> <SimilarityPheSA_1>
0.717

> <Smiles>
CC(C)(C)c1ccc(N(Cc2cccc(Cl)c2)C(=O)Cc2cn[nH]c2)cc1

> <Similarity_SkelSpheres>
0.732

> <Cluster No>
12.0

> <QueryID>
ALP-POS-6d04362c-2

> <SimilarityPheSA>
0.7168

> <Postera series>
3-aminopyridine-like

> <PDB_code>
Mpro-x12423

> <Approach>
DGM_focussed_RL

> <ID>
20210618_20

> <SimilarityPheSA_2>
0.685

> <OPTIBRIUM.logD>
4.86389

> <OPTIBRIUM.BBB category>
+

> <OPTIBRIUM.logP>
4.86389

> <OPTIBRIUM.P-gp category>
yes

> <OPTIBRIUM.logS>
0.613093

> <OPTIBRIUM.HIA category>
+

> <OPTIBRIUM.PPB90 category>
high

> <OPTIBRIUM.2D6 affinity category>
medium

> <OPTIBRIUM.hERG pIC50>
4.99929

> <OPTIBRIUM.2C9 pKi>
5.74258

> <OPTIBRIUM.BBB log([brain]:[blood])>
0.0303668

> <OPTIBRIUM.logS @ pH7.4>
0.613093

$$$$
Compound 21_1_06
haSeeSAR  07122114523D 1   1.00000     0.00000     0
SeeSAR 11.0.2 hazemaj
 51 53  0  0  0  0            999 V2000
   14.4128  -19.0214    5.3423 Cl  0  0  0  0  0  0  0  0  0  0  0  0
   15.1274  -17.3915    5.3738 C   0  0  0  0  0  0  0  0  0  0  0  0
   14.3731  -16.3042    4.9456 C   0  0  0  0  0  0  0  0  0  0  0  0
   16.4322  -17.2251    5.8263 C   0  0  0  0  0  0  0  0  0  0  0  0
   14.9443  -15.0362    4.9758 C   0  0  0  0  0  0  0  0  0  0  0  0
   16.9835  -15.9485    5.8478 C   0  0  0  0  0  0  0  0  0  0  0  0
   16.2474  -14.8468    5.4242 C   0  0  0  0  0  0  0  0  0  0  0  0
   14.1279  -13.8419    4.5090 C   0  0  0  0  0  0  0  0  0  0  0  0
   15.0327  -12.7439    4.1396 N   0  0  0  0  0  0  0  0  0  0  0  0
   15.6098  -12.7112    2.8641 C   0  0  0  0  0  0  0  0  0  0  0  0
   15.3021  -11.7867    5.0122 C   0  0  0  0  0  0  0  0  0  0  0  0
   16.8542  -13.2949    2.6518 C   0  0  0  0  0  0  0  0  0  0  0  0
   14.9281  -12.0925    1.8213 C   0  0  0  0  0  0  0  0  0  0  0  0
   15.6884  -10.6860    4.6188 O   0  0  0  0  0  0  0  0  0  0  0  0
   15.1346  -12.0459    6.5005 C   0  0  0  0  0  0  0  0  0  0  0  0
   17.4303  -13.2632    1.3857 C   0  0  0  0  0  0  0  0  0  0  0  0
   15.5013  -12.0595    0.5543 C   0  0  0  0  0  0  0  0  0  0  0  0
   13.8139  -11.4588    6.9716 C   0  0  0  0  0  0  0  0  0  0  0  0
   16.7459  -12.6441    0.3447 C   0  0  0  0  0  0  0  0  0  0  0  0
   12.8732  -10.7587    6.1836 C   0  0  0  0  0  0  0  0  0  0  0  0
   13.3156  -11.5094    8.2415 C   0  0  0  0  0  0  0  0  0  0  0  0
   17.3730  -12.6080   -1.0393 C   0  0  0  0  0  0  0  0  0  0  0  0
   11.8858  -10.4368    6.9894 N   0  0  0  0  0  0  0  0  0  0  0  0
   12.1142  -10.8585    8.2237 N   0  0  0  0  0  0  0  0  0  0  0  0
   17.0275  -13.8869   -1.7845 C   0  0  0  0  0  0  0  0  0  0  0  0
   16.8345  -11.4124   -1.8081 C   0  0  0  0  0  0  0  0  0  0  0  0
   18.8829  -12.4890   -0.9101 C   0  0  0  0  0  0  0  0  0  0  0  0
   13.4359  -16.4319    4.6212 H   0  0  0  0  0  0  0  0  0  0  0  0
   16.9667  -18.0130    6.1320 H   0  0  0  0  0  0  0  0  0  0  0  0
   17.9209  -15.8209    6.1718 H   0  0  0  0  0  0  0  0  0  0  0  0
   16.6494  -13.9314    5.4419 H   0  0  0  0  0  0  0  0  0  0  0  0
   13.5237  -13.5419    5.2473 H   0  0  0  0  0  0  0  0  0  0  0  0
   13.5792  -14.1031    3.7148 H   0  0  0  0  0  0  0  0  0  0  0  0
   17.3349  -13.7372    3.4090 H   0  0  0  0  0  0  0  0  0  0  0  0
   14.0335  -11.6751    1.9812 H   0  0  0  0  0  0  0  0  0  0  0  0
   15.8872  -11.6172    7.0003 H   0  0  0  0  0  0  0  0  0  0  0  0
   15.1406  -13.0315    6.6700 H   0  0  0  0  0  0  0  0  0  0  0  0
   18.3250  -13.6803    1.2260 H   0  0  0  0  0  0  0  0  0  0  0  0
   15.0204  -11.6171   -0.2027 H   0  0  0  0  0  0  0  0  0  0  0  0
   12.9442  -10.5497    5.2083 H   0  0  0  0  0  0  0  0  0  0  0  0
   13.7473  -11.9406    9.0338 H   0  0  0  0  0  0  0  0  0  0  0  0
   17.4399  -13.8639   -2.6953 H   0  0  0  0  0  0  0  0  0  0  0  0
   17.3811  -14.6735   -1.2783 H   0  0  0  0  0  0  0  0  0  0  0  0
   16.0343  -13.9648   -1.8703 H   0  0  0  0  0  0  0  0  0  0  0  0
   17.2471  -11.3884   -2.7188 H   0  0  0  0  0  0  0  0  0  0  0  0
   15.8414  -11.4912   -1.8940 H   0  0  0  0  0  0  0  0  0  0  0  0
   17.0610  -10.5710   -1.3174 H   0  0  0  0  0  0  0  0  0  0  0  0
   19.2946  -12.4654   -1.8211 H   0  0  0  0  0  0  0  0  0  0  0  0
   19.1102  -11.6477   -0.4197 H   0  0  0  0  0  0  0  0  0  0  0  0
   19.2372  -13.2756   -0.4045 H   0  0  0  0  0  0  0  0  0  0  0  0
   11.0668   -9.9376    6.7066 H   0  0  0  0  0  0  0  0  0  0  0  0
  1  2  1  0  0  0  0
  2  3  2  0  0  0  0
  2  4  1  0  0  0  0
  3  5  1  0  0  0  0
  4  6  2  0  0  0  0
  5  7  2  0  0  0  0
  5  8  1  0  0  0  0
  8  9  1  0  0  0  0
  9 10  1  0  0  0  0
  9 11  1  0  0  0  0
 10 12  2  0  0  0  0
 10 13  1  0  0  0  0
 11 14  2  0  0  0  0
 11 15  1  0  0  0  0
 12 16  1  0  0  0  0
 13 17  2  0  0  0  0
 15 18  1  0  0  0  0
 16 19  2  0  0  0  0
 18 20  2  0  0  0  0
 18 21  1  0  0  0  0
 19 22  1  0  0  0  0
 20 23  1  0  0  0  0
 21 24  2  0  0  0  0
 22 25  1  0  0  0  0
 22 26  1  0  0  0  0
 22 27  1  0  0  0  0
  6  7  1  0  0  0  0
 17 19  1  0  0  0  0
 23 24  1  0  0  0  0
  3 28  1  0  0  0  0
  4 29  1  0  0  0  0
  6 30  1  0  0  0  0
  7 31  1  0  0  0  0
  8 32  1  0  0  0  0
  8 33  1  0  0  0  0
 12 34  1  0  0  0  0
 13 35  1  0  0  0  0
 15 36  1  0  0  0  0
 15 37  1  0  0  0  0
 16 38  1  0  0  0  0
 17 39  1  0  0  0  0
 20 40  1  0  0  0  0
 21 41  1  0  0  0  0
 23 51  1  0  0  0  0
 25 42  1  0  0  0  0
 25 43  1  0  0  0  0
 25 44  1  0  0  0  0
 26 45  1  0  0  0  0
 26 46  1  0  0  0  0
 26 47  1  0  0  0  0
 27 48  1  0  0  0  0
 27 49  1  0  0  0  0
 27 50  1  0  0  0  0
M  END
> <BIOSOLVEIT.HYDE_ESTIMATED_AFFINITY_LOWER_BOUNDARY [nM]>
10974.994134

> <BIOSOLVEIT.HYDE_ESTIMATED_AFFINITY_UPPER_BOUNDARY [nM]>
1090430.556510

> <BIOSOLVEIT.HYDE_LIGAND_EFFICIENCY range: ++, +, 0, -, -->
-

> <BIOSOLVEIT.HYDE_LIGAND_LIPOPHILIC_EFFICIENCY range: ++, +, 0, -, -->
--

> <BIOSOLVEIT.INTER_CLASH range: red, yellow, green>
green

> <BIOSOLVEIT.INTRA_CLASH range: red, yellow, green>
green

> <BIOSOLVEIT.LOGP>
5.1365

> <BIOSOLVEIT.MOLECULAR WEIGHT>
381.905

> <BIOSOLVEIT.MOLECULE_CHECKSUM>
LTIyLjYwOTQ7MC44MzczODY=

> <BIOSOLVEIT.TORSION_QUALITY range: red, yellow, green, not rotatable>
yellow

> <BIOSOLVEIT.TPSA>
48.99

> <BIOSOLVEIT.SEESAR_FAVORITE>
favorite

> <smc_score>
0.563

> <QED_score>
0.665

> <distance>
0.562

> <SimilarityPheSA_1>
0.717

> <Smiles>
CC(C)(C)c1ccc(N(Cc2cccc(Cl)c2)C(=O)Cc2cn[nH]c2)cc1

> <Similarity_SkelSpheres>
0.732

> <Cluster No>
12.0

> <QueryID>
ALP-POS-6d04362c-2

> <SimilarityPheSA>
0.7168

> <Postera series>
3-aminopyridine-like

> <PDB_code>
Mpro-x12423

> <Approach>
DGM_focussed_RL

> <ID>
20210618_20

> <SimilarityPheSA_2>
0.685

> <OPTIBRIUM.logD>
4.86389

> <OPTIBRIUM.BBB category>
+

> <OPTIBRIUM.logP>
4.86389

> <OPTIBRIUM.P-gp category>
yes

> <OPTIBRIUM.logS>
0.613093

> <OPTIBRIUM.HIA category>
+

> <OPTIBRIUM.PPB90 category>
high

> <OPTIBRIUM.2D6 affinity category>
medium

> <OPTIBRIUM.hERG pIC50>
4.99929

> <OPTIBRIUM.2C9 pKi>
5.74258

> <OPTIBRIUM.BBB log([brain]:[blood])>
0.0303668

> <OPTIBRIUM.logS @ pH7.4>
0.613093

$$$$
Compound 21_1_08
haSeeSAR  07122114523D 1   1.00000     0.00000     0
SeeSAR 11.0.2 hazemaj
 51 53  0  0  0  0            999 V2000
   17.0651  -18.3944    2.9346 Cl  0  0  0  0  0  0  0  0  0  0  0  0
   16.9463  -17.0969    4.1472 C   0  0  0  0  0  0  0  0  0  0  0  0
   15.9650  -16.1205    4.0122 C   0  0  0  0  0  0  0  0  0  0  0  0
   17.8371  -17.0750    5.2153 C   0  0  0  0  0  0  0  0  0  0  0  0
   15.8837  -15.1125    4.9675 C   0  0  0  0  0  0  0  0  0  0  0  0
   17.7380  -16.0578    6.1587 C   0  0  0  0  0  0  0  0  0  0  0  0
   16.7642  -15.0711    6.0435 C   0  0  0  0  0  0  0  0  0  0  0  0
   14.8149  -14.0406    4.8278 C   0  0  0  0  0  0  0  0  0  0  0  0
   15.4287  -12.7972    4.3396 N   0  0  0  0  0  0  0  0  0  0  0  0
   15.8975  -12.7181    3.0226 C   0  0  0  0  0  0  0  0  0  0  0  0
   15.5381  -11.7531    5.1447 C   0  0  0  0  0  0  0  0  0  0  0  0
   17.2464  -12.9250    2.7540 C   0  0  0  0  0  0  0  0  0  0  0  0
   15.0044  -12.4321    1.9953 C   0  0  0  0  0  0  0  0  0  0  0  0
   15.8156  -10.6463    4.6828 O   0  0  0  0  0  0  0  0  0  0  0  0
   15.3213  -11.9202    6.6399 C   0  0  0  0  0  0  0  0  0  0  0  0
   17.7151  -12.8462    1.4464 C   0  0  0  0  0  0  0  0  0  0  0  0
   15.4699  -12.3529    0.6869 C   0  0  0  0  0  0  0  0  0  0  0  0
   13.9333  -11.4227    7.0093 C   0  0  0  0  0  0  0  0  0  0  0  0
   16.8194  -12.5604    0.4211 C   0  0  0  0  0  0  0  0  0  0  0  0
   13.0063  -10.7927    6.1489 C   0  0  0  0  0  0  0  0  0  0  0  0
   13.3494  -11.5005    8.2407 C   0  0  0  0  0  0  0  0  0  0  0  0
   17.3291  -12.4736   -1.0083 C   0  0  0  0  0  0  0  0  0  0  0  0
   11.9438  -10.5352    6.8788 N   0  0  0  0  0  0  0  0  0  0  0  0
   12.1109  -10.9337    8.1304 N   0  0  0  0  0  0  0  0  0  0  0  0
   16.9030  -13.7160   -1.7733 C   0  0  0  0  0  0  0  0  0  0  0  0
   16.7463  -11.2406   -1.6795 C   0  0  0  0  0  0  0  0  0  0  0  0
   18.8461  -12.3777   -1.0019 C   0  0  0  0  0  0  0  0  0  0  0  0
   15.3285  -16.1427    3.2412 H   0  0  0  0  0  0  0  0  0  0  0  0
   18.5395  -17.7812    5.3037 H   0  0  0  0  0  0  0  0  0  0  0  0
   18.3747  -16.0354    6.9294 H   0  0  0  0  0  0  0  0  0  0  0  0
   16.6981  -14.3423    6.7249 H   0  0  0  0  0  0  0  0  0  0  0  0
   14.3900  -13.8755    5.7179 H   0  0  0  0  0  0  0  0  0  0  0  0
   14.1190  -14.3464    4.1780 H   0  0  0  0  0  0  0  0  0  0  0  0
   17.8792  -13.1303    3.5007 H   0  0  0  0  0  0  0  0  0  0  0  0
   14.0357  -12.2847    2.1956 H   0  0  0  0  0  0  0  0  0  0  0  0
   16.0085  -11.3910    7.1375 H   0  0  0  0  0  0  0  0  0  0  0  0
   15.4046  -12.8867    6.8828 H   0  0  0  0  0  0  0  0  0  0  0  0
   18.6838  -12.9932    1.2461 H   0  0  0  0  0  0  0  0  0  0  0  0
   14.8369  -12.1477   -0.0597 H   0  0  0  0  0  0  0  0  0  0  0  0
   13.1330  -10.5847    5.1791 H   0  0  0  0  0  0  0  0  0  0  0  0
   13.7513  -11.8969    9.0662 H   0  0  0  0  0  0  0  0  0  0  0  0
   17.2381  -13.6595   -2.7138 H   0  0  0  0  0  0  0  0  0  0  0  0
   17.2859  -14.5272   -1.3312 H   0  0  0  0  0  0  0  0  0  0  0  0
   15.9051  -13.7786   -1.7781 H   0  0  0  0  0  0  0  0  0  0  0  0
   17.0814  -11.1832   -2.6200 H   0  0  0  0  0  0  0  0  0  0  0  0
   15.7483  -11.3042   -1.6846 H   0  0  0  0  0  0  0  0  0  0  0  0
   17.0256  -10.4232   -1.1757 H   0  0  0  0  0  0  0  0  0  0  0  0
   19.1803  -12.3207   -1.9427 H   0  0  0  0  0  0  0  0  0  0  0  0
   19.1263  -11.5604   -0.4984 H   0  0  0  0  0  0  0  0  0  0  0  0
   19.2295  -13.1890   -0.5606 H   0  0  0  0  0  0  0  0  0  0  0  0
   11.1153  -10.0947    6.5331 H   0  0  0  0  0  0  0  0  0  0  0  0
  1  2  1  0  0  0  0
  2  3  2  0  0  0  0
  2  4  1  0  0  0  0
  3  5  1  0  0  0  0
  4  6  2  0  0  0  0
  5  7  2  0  0  0  0
  5  8  1  0  0  0  0
  8  9  1  0  0  0  0
  9 10  1  0  0  0  0
  9 11  1  0  0  0  0
 10 12  2  0  0  0  0
 10 13  1  0  0  0  0
 11 14  2  0  0  0  0
 11 15  1  0  0  0  0
 12 16  1  0  0  0  0
 13 17  2  0  0  0  0
 15 18  1  0  0  0  0
 16 19  2  0  0  0  0
 18 20  2  0  0  0  0
 18 21  1  0  0  0  0
 19 22  1  0  0  0  0
 20 23  1  0  0  0  0
 21 24  2  0  0  0  0
 22 25  1  0  0  0  0
 22 26  1  0  0  0  0
 22 27  1  0  0  0  0
  6  7  1  0  0  0  0
 17 19  1  0  0  0  0
 23 24  1  0  0  0  0
  3 28  1  0  0  0  0
  4 29  1  0  0  0  0
  6 30  1  0  0  0  0
  7 31  1  0  0  0  0
  8 32  1  0  0  0  0
  8 33  1  0  0  0  0
 12 34  1  0  0  0  0
 13 35  1  0  0  0  0
 15 36  1  0  0  0  0
 15 37  1  0  0  0  0
 16 38  1  0  0  0  0
 17 39  1  0  0  0  0
 20 40  1  0  0  0  0
 21 41  1  0  0  0  0
 23 51  1  0  0  0  0
 25 42  1  0  0  0  0
 25 43  1  0  0  0  0
 25 44  1  0  0  0  0
 26 45  1  0  0  0  0
 26 46  1  0  0  0  0
 26 47  1  0  0  0  0
 27 48  1  0  0  0  0
 27 49  1  0  0  0  0
 27 50  1  0  0  0  0
M  END
> <BIOSOLVEIT.HYDE_ESTIMATED_AFFINITY_LOWER_BOUNDARY [nM]>
3196.929144

> <BIOSOLVEIT.HYDE_ESTIMATED_AFFINITY_UPPER_BOUNDARY [nM]>
317633.812228

> <BIOSOLVEIT.HYDE_LIGAND_EFFICIENCY range: ++, +, 0, -, -->
-

> <BIOSOLVEIT.HYDE_LIGAND_LIPOPHILIC_EFFICIENCY range: ++, +, 0, -, -->
--

> <BIOSOLVEIT.INTER_CLASH range: red, yellow, green>
green

> <BIOSOLVEIT.INTRA_CLASH range: red, yellow, green>
green

> <BIOSOLVEIT.LOGP>
5.1365

> <BIOSOLVEIT.MOLECULAR WEIGHT>
381.905

> <BIOSOLVEIT.MOLECULE_CHECKSUM>
LTI1LjY2NzswLjk1MDYzMQ==

> <BIOSOLVEIT.TORSION_QUALITY range: red, yellow, green, not rotatable>
yellow

> <BIOSOLVEIT.TPSA>
48.99

> <BIOSOLVEIT.SEESAR_FAVORITE>
favorite

> <smc_score>
0.563

> <QED_score>
0.665

> <distance>
0.562

> <SimilarityPheSA_1>
0.717

> <Smiles>
CC(C)(C)c1ccc(N(Cc2cccc(Cl)c2)C(=O)Cc2cn[nH]c2)cc1

> <Similarity_SkelSpheres>
0.732

> <Cluster No>
12.0

> <QueryID>
ALP-POS-6d04362c-2

> <SimilarityPheSA>
0.7168

> <Postera series>
3-aminopyridine-like

> <PDB_code>
Mpro-x12423

> <Approach>
DGM_focussed_RL

> <ID>
20210618_20

> <SimilarityPheSA_2>
0.685

> <OPTIBRIUM.logD>
4.86389

> <OPTIBRIUM.BBB category>
+

> <OPTIBRIUM.logP>
4.86389

> <OPTIBRIUM.P-gp category>
yes

> <OPTIBRIUM.logS>
0.613093

> <OPTIBRIUM.HIA category>
+

> <OPTIBRIUM.PPB90 category>
high

> <OPTIBRIUM.2D6 affinity category>
medium

> <OPTIBRIUM.hERG pIC50>
4.99929

> <OPTIBRIUM.2C9 pKi>
5.74258

> <OPTIBRIUM.BBB log([brain]:[blood])>
0.0303668

> <OPTIBRIUM.logS @ pH7.4>
0.613093

$$$$
Compound 21_1_10
haSeeSAR  07122114523D 1   1.00000     0.00000     0
SeeSAR 11.0.2 hazemaj
 51 53  0  0  0  0            999 V2000
   17.4427  -16.9099    6.8912 Cl  0  0  0  0  0  0  0  0  0  0  0  0
   16.3375  -16.5917    5.5328 C   0  0  0  0  0  0  0  0  0  0  0  0
   15.6548  -15.3814    5.4738 C   0  0  0  0  0  0  0  0  0  0  0  0
   16.1697  -17.5582    4.5466 C   0  0  0  0  0  0  0  0  0  0  0  0
   14.7944  -15.1463    4.4062 C   0  0  0  0  0  0  0  0  0  0  0  0
   15.3042  -17.3022    3.4884 C   0  0  0  0  0  0  0  0  0  0  0  0
   14.6115  -16.0986    3.4091 C   0  0  0  0  0  0  0  0  0  0  0  0
   14.0434  -13.8265    4.3337 C   0  0  0  0  0  0  0  0  0  0  0  0
   14.9835  -12.7451    4.0061 N   0  0  0  0  0  0  0  0  0  0  0  0
   15.5812  -12.6963    2.7407 C   0  0  0  0  0  0  0  0  0  0  0  0
   15.2650  -11.8179    4.9069 C   0  0  0  0  0  0  0  0  0  0  0  0
   16.8016  -13.3283    2.5265 C   0  0  0  0  0  0  0  0  0  0  0  0
   14.9442  -12.0133    1.7099 C   0  0  0  0  0  0  0  0  0  0  0  0
   15.6544  -10.7072    4.5459 O   0  0  0  0  0  0  0  0  0  0  0  0
   15.1075  -12.1238    6.3874 C   0  0  0  0  0  0  0  0  0  0  0  0
   17.3981  -13.2809    1.2704 C   0  0  0  0  0  0  0  0  0  0  0  0
   15.5380  -11.9644    0.4530 C   0  0  0  0  0  0  0  0  0  0  0  0
   13.8153  -11.5067    6.8976 C   0  0  0  0  0  0  0  0  0  0  0  0
   16.7583  -12.5973    0.2413 C   0  0  0  0  0  0  0  0  0  0  0  0
   12.8675  -10.7851    6.1379 C   0  0  0  0  0  0  0  0  0  0  0  0
   13.3543  -11.5462    8.1819 C   0  0  0  0  0  0  0  0  0  0  0  0
   17.4080  -12.5439   -1.1318 C   0  0  0  0  0  0  0  0  0  0  0  0
   11.9124  -10.4410    6.9729 N   0  0  0  0  0  0  0  0  0  0  0  0
   12.1682  -10.8680    8.1998 N   0  0  0  0  0  0  0  0  0  0  0  0
   17.0924  -13.8226   -1.8906 C   0  0  0  0  0  0  0  0  0  0  0  0
   16.8664  -11.3507   -1.9021 C   0  0  0  0  0  0  0  0  0  0  0  0
   18.9138  -12.4054   -0.9764 C   0  0  0  0  0  0  0  0  0  0  0  0
   15.7804  -14.6918    6.1869 H   0  0  0  0  0  0  0  0  0  0  0  0
   16.6648  -18.4256    4.5977 H   0  0  0  0  0  0  0  0  0  0  0  0
   15.1785  -17.9922    2.7755 H   0  0  0  0  0  0  0  0  0  0  0  0
   13.9904  -15.9205    2.6459 H   0  0  0  0  0  0  0  0  0  0  0  0
   13.6137  -13.6386    5.2169 H   0  0  0  0  0  0  0  0  0  0  0  0
   13.3394  -13.8821    3.6256 H   0  0  0  0  0  0  0  0  0  0  0  0
   17.2501  -13.8167    3.2749 H   0  0  0  0  0  0  0  0  0  0  0  0
   14.0668  -11.5614    1.8711 H   0  0  0  0  0  0  0  0  0  0  0  0
   15.8816  -11.7404    6.8911 H   0  0  0  0  0  0  0  0  0  0  0  0
   15.0798  -13.1143    6.5219 H   0  0  0  0  0  0  0  0  0  0  0  0
   18.2757  -13.7325    1.1093 H   0  0  0  0  0  0  0  0  0  0  0  0
   15.0893  -11.4760   -0.2956 H   0  0  0  0  0  0  0  0  0  0  0  0
   12.9140  -10.5777    5.1607 H   0  0  0  0  0  0  0  0  0  0  0  0
   13.7997  -11.9873    8.9610 H   0  0  0  0  0  0  0  0  0  0  0  0
   17.5196  -13.7881   -2.7941 H   0  0  0  0  0  0  0  0  0  0  0  0
   17.4481  -14.6076   -1.3834 H   0  0  0  0  0  0  0  0  0  0  0  0
   16.1018  -13.9133   -1.9934 H   0  0  0  0  0  0  0  0  0  0  0  0
   17.2936  -11.3153   -2.8054 H   0  0  0  0  0  0  0  0  0  0  0  0
   15.8759  -11.4424   -2.0051 H   0  0  0  0  0  0  0  0  0  0  0  0
   17.0731  -10.5096   -1.4023 H   0  0  0  0  0  0  0  0  0  0  0  0
   19.3403  -12.3705   -1.8803 H   0  0  0  0  0  0  0  0  0  0  0  0
   19.1214  -11.5643   -0.4770 H   0  0  0  0  0  0  0  0  0  0  0  0
   19.2702  -13.1906   -0.4699 H   0  0  0  0  0  0  0  0  0  0  0  0
   11.0969   -9.9231    6.7144 H   0  0  0  0  0  0  0  0  0  0  0  0
  1  2  1  0  0  0  0
  2  3  2  0  0  0  0
  2  4  1  0  0  0  0
  3  5  1  0  0  0  0
  4  6  2  0  0  0  0
  5  7  2  0  0  0  0
  5  8  1  0  0  0  0
  8  9  1  0  0  0  0
  9 10  1  0  0  0  0
  9 11  1  0  0  0  0
 10 12  2  0  0  0  0
 10 13  1  0  0  0  0
 11 14  2  0  0  0  0
 11 15  1  0  0  0  0
 12 16  1  0  0  0  0
 13 17  2  0  0  0  0
 15 18  1  0  0  0  0
 16 19  2  0  0  0  0
 18 20  2  0  0  0  0
 18 21  1  0  0  0  0
 19 22  1  0  0  0  0
 20 23  1  0  0  0  0
 21 24  2  0  0  0  0
 22 25  1  0  0  0  0
 22 26  1  0  0  0  0
 22 27  1  0  0  0  0
  6  7  1  0  0  0  0
 17 19  1  0  0  0  0
 23 24  1  0  0  0  0
  3 28  1  0  0  0  0
  4 29  1  0  0  0  0
  6 30  1  0  0  0  0
  7 31  1  0  0  0  0
  8 32  1  0  0  0  0
  8 33  1  0  0  0  0
 12 34  1  0  0  0  0
 13 35  1  0  0  0  0
 15 36  1  0  0  0  0
 15 37  1  0  0  0  0
 16 38  1  0  0  0  0
 17 39  1  0  0  0  0
 20 40  1  0  0  0  0
 21 41  1  0  0  0  0
 23 51  1  0  0  0  0
 25 42  1  0  0  0  0
 25 43  1  0  0  0  0
 25 44  1  0  0  0  0
 26 45  1  0  0  0  0
 26 46  1  0  0  0  0
 26 47  1  0  0  0  0
 27 48  1  0  0  0  0
 27 49  1  0  0  0  0
 27 50  1  0  0  0  0
M  END
> <BIOSOLVEIT.HYDE_ESTIMATED_AFFINITY_LOWER_BOUNDARY [nM]>
13168.353011

> <BIOSOLVEIT.HYDE_ESTIMATED_AFFINITY_UPPER_BOUNDARY [nM]>
1308353.729142

> <BIOSOLVEIT.HYDE_LIGAND_EFFICIENCY range: ++, +, 0, -, -->
--

> <BIOSOLVEIT.HYDE_LIGAND_LIPOPHILIC_EFFICIENCY range: ++, +, 0, -, -->
--

> <BIOSOLVEIT.INTER_CLASH range: red, yellow, green>
green

> <BIOSOLVEIT.INTRA_CLASH range: red, yellow, green>
green

> <BIOSOLVEIT.LOGP>
5.1365

> <BIOSOLVEIT.MOLECULAR WEIGHT>
381.905

> <BIOSOLVEIT.MOLECULE_CHECKSUM>
LTIyLjE1Nzg7MC44MjA2NTg=

> <BIOSOLVEIT.TORSION_QUALITY range: red, yellow, green, not rotatable>
yellow

> <BIOSOLVEIT.TPSA>
48.99

> <BIOSOLVEIT.SEESAR_FAVORITE>
favorite

> <smc_score>
0.563

> <QED_score>
0.665

> <distance>
0.562

> <SimilarityPheSA_1>
0.717

> <Smiles>
CC(C)(C)c1ccc(N(Cc2cccc(Cl)c2)C(=O)Cc2cn[nH]c2)cc1

> <Similarity_SkelSpheres>
0.732

> <Cluster No>
12.0

> <QueryID>
ALP-POS-6d04362c-2

> <SimilarityPheSA>
0.7168

> <Postera series>
3-aminopyridine-like

> <PDB_code>
Mpro-x12423

> <Approach>
DGM_focussed_RL

> <ID>
20210618_20

> <SimilarityPheSA_2>
0.685

> <OPTIBRIUM.logD>
4.86389

> <OPTIBRIUM.BBB category>
+

> <OPTIBRIUM.logP>
4.86389

> <OPTIBRIUM.P-gp category>
yes

> <OPTIBRIUM.logS>
0.613093

> <OPTIBRIUM.HIA category>
+

> <OPTIBRIUM.PPB90 category>
high

> <OPTIBRIUM.2D6 affinity category>
medium

> <OPTIBRIUM.hERG pIC50>
4.99929

> <OPTIBRIUM.2C9 pKi>
5.74258

> <OPTIBRIUM.BBB log([brain]:[blood])>
0.0303668

> <OPTIBRIUM.logS @ pH7.4>
0.613093

$$$$
Compound 60_1_4
haSeeSAR  07122114523D 1   1.00000     0.00000     0
SeeSAR 11.0.2 hazemaj
 39 42  0  0  0  0            999 V2000
   21.8405   -6.4800    2.8463 Cl  0  0  0  0  0  0  0  0  0  0  0  0
   20.8769   -7.9396    3.1879 C   0  0  0  0  0  0  0  0  0  0  0  0
   19.4899   -7.8675    3.1059 C   0  0  0  0  0  0  0  0  0  0  0  0
   21.4637   -9.1547    3.5363 C   0  0  0  0  0  0  0  0  0  0  0  0
   18.6835   -6.3428    2.6670 Cl  0  0  0  0  0  0  0  0  0  0  0  0
   18.7089   -8.9890    3.3681 C   0  0  0  0  0  0  0  0  0  0  0  0
   20.7094  -10.2955    3.8044 C   0  0  0  0  0  0  0  0  0  0  0  0
   19.3413  -10.1783    3.7125 C   0  0  0  0  0  0  0  0  0  0  0  0
   21.0334  -11.5560    4.1459 O   0  0  0  0  0  0  0  0  0  0  0  0
   18.7424  -11.5256    4.0582 C   0  0  1  0  0  0  0  0  0  0  0  0
   19.9186  -12.1103    4.8150 C   0  0  0  0  0  0  0  0  0  0  0  0
   17.4971  -11.4064    4.9212 C   0  0  0  0  0  0  0  0  0  0  0  0
   16.8106  -10.3858    4.8734 O   0  0  0  0  0  0  0  0  0  0  0  0
   17.1510  -12.3995    5.7239 N   0  0  0  0  0  0  0  0  0  0  0  0
   15.9466  -12.2842    6.5587 C   0  0  0  0  0  0  0  0  0  0  0  0
   14.7106  -12.3468    5.6762 C   0  0  0  0  0  0  0  0  0  0  0  0
   13.5862  -11.6895    6.3598 N   0  0  0  0  0  0  0  0  0  0  0  0
   12.6955  -10.8963    5.8144 N   0  0  0  0  0  0  0  0  0  0  0  0
   13.2751  -11.7820    7.6749 C   0  0  0  0  0  0  0  0  0  0  0  0
   11.8702  -10.5099    6.6936 N   0  0  0  0  0  0  0  0  0  0  0  0
   12.2096  -11.0367    7.8489 N   0  0  0  0  0  0  0  0  0  0  0  0
   14.0134  -12.5850    8.7342 C   0  0  0  0  0  0  0  0  0  0  0  0
   13.7206  -12.0587   10.1088 C   0  0  0  0  0  0  0  0  0  0  0  0
   15.0431  -11.7675    9.4595 C   0  0  0  0  0  0  0  0  0  0  0  0
   22.4604   -9.2099    3.5959 H   0  0  0  0  0  0  0  0  0  0  0  0
   17.7118   -8.9404    3.3099 H   0  0  0  0  0  0  0  0  0  0  0  0
   18.5530  -12.0541    3.2308 H   0  0  0  0  0  0  0  0  0  0  0  0
   19.9017  -11.8333    5.7756 H   0  0  0  0  0  0  0  0  0  0  0  0
   19.9238  -13.1085    4.7559 H   0  0  0  0  0  0  0  0  0  0  0  0
   17.7088  -13.2286    5.7628 H   0  0  0  0  0  0  0  0  0  0  0  0
   15.9626  -11.4125    7.0485 H   0  0  0  0  0  0  0  0  0  0  0  0
   15.9242  -13.0363    7.2174 H   0  0  0  0  0  0  0  0  0  0  0  0
   14.4780  -13.3024    5.4954 H   0  0  0  0  0  0  0  0  0  0  0  0
   14.8943  -11.8791    4.8116 H   0  0  0  0  0  0  0  0  0  0  0  0
   14.1628  -13.5646    8.5995 H   0  0  0  0  0  0  0  0  0  0  0  0
   13.6724  -12.6873   10.8850 H   0  0  0  0  0  0  0  0  0  0  0  0
   13.0516  -11.3257   10.2314 H   0  0  0  0  0  0  0  0  0  0  0  0
   15.2547  -10.8405    9.1497 H   0  0  0  0  0  0  0  0  0  0  0  0
   15.8755  -12.2021    9.8033 H   0  0  0  0  0  0  0  0  0  0  0  0
  1  2  1  0  0  0  0
  2  3  2  0  0  0  0
  2  4  1  0  0  0  0
  3  5  1  0  0  0  0
  3  6  1  0  0  0  0
  4  7  2  0  0  0  0
  6  8  2  0  0  0  0
  7  9  1  0  0  0  0
  8 10  1  0  0  0  0
  9 11  1  0  0  0  0
 10 12  1  0  0  0  0
 12 13  2  0  0  0  0
 12 14  1  0  0  0  0
 14 15  1  0  0  0  0
 15 16  1  0  0  0  0
 16 17  1  0  0  0  0
 17 18  1  0  0  0  0
 17 19  1  0  0  0  0
 18 20  2  0  0  0  0
 19 21  2  0  0  0  0
 19 22  1  0  0  0  0
 22 23  1  0  0  0  0
 22 24  1  0  0  0  0
  7  8  1  0  0  0  0
 10 11  1  0  0  0  0
 20 21  1  0  0  0  0
 23 24  1  0  0  0  0
  4 25  1  0  0  0  0
  6 26  1  0  0  0  0
 10 27  1  0  0  0  0
 11 28  1  0  0  0  0
 11 29  1  0  0  0  0
 14 30  1  0  0  0  0
 15 31  1  0  0  0  0
 15 32  1  0  0  0  0
 16 33  1  0  0  0  0
 16 34  1  0  0  0  0
 22 35  1  0  0  0  0
 23 36  1  0  0  0  0
 23 37  1  0  0  0  0
 24 38  1  0  0  0  0
 24 39  1  0  0  0  0
M  END
> <BIOSOLVEIT.HYDE_ESTIMATED_AFFINITY_LOWER_BOUNDARY [nM]>
272091541009.481445

> <BIOSOLVEIT.HYDE_ESTIMATED_AFFINITY_UPPER_BOUNDARY [nM]>
27033903331799.375000

> <BIOSOLVEIT.HYDE_LIGAND_EFFICIENCY range: ++, +, 0, -, -->
--

> <BIOSOLVEIT.HYDE_LIGAND_LIPOPHILIC_EFFICIENCY range: ++, +, 0, -, -->
--

> <BIOSOLVEIT.INTER_CLASH range: red, yellow, green>
red

> <BIOSOLVEIT.INTRA_CLASH range: red, yellow, green>
yellow

> <BIOSOLVEIT.LOGP>
2.1497

> <BIOSOLVEIT.MOLECULAR WEIGHT>
368.223

> <BIOSOLVEIT.MOLECULE_CHECKSUM>
MTkuNTk3NDsw

> <BIOSOLVEIT.TORSION_QUALITY range: red, yellow, green, not rotatable>
yellow

> <BIOSOLVEIT.TPSA>
81.93

> <BIOSOLVEIT.SEESAR_FAVORITE>
favorite

> <smc_score>
0.813

> <QED_score>
0.875

> <distance>
0.653

> <SimilarityPheSA_1>
0.752

> <Smiles>
O=C(NCCn1nnnc1C1CC1)C1COc2cc(Cl)c(Cl)cc21

> <Similarity_SkelSpheres>
0.597

> <Cluster No>
28.0

> <QueryID>
JAG-UCB-a3ef7265-20

> <SimilarityPheSA>
0.7515

> <Postera series>
3-aminopyridine-like

> <PDB_code>
Mpro-x10324

> <Approach>
DGM_focussed_RL

> <ID>
20210618_59

> <SimilarityPheSA_2>
0.702

> <OPTIBRIUM.logD>
2.06965

> <OPTIBRIUM.BBB category>
-

> <OPTIBRIUM.logP>
2.06965

> <OPTIBRIUM.P-gp category>
yes

> <OPTIBRIUM.logS>
2.61674

> <OPTIBRIUM.HIA category>
+

> <OPTIBRIUM.PPB90 category>
low

> <OPTIBRIUM.2D6 affinity category>
high

> <OPTIBRIUM.hERG pIC50>
4.73038

> <OPTIBRIUM.2C9 pKi>
4.99178

> <OPTIBRIUM.BBB log([brain]:[blood])>
-0.50185

> <OPTIBRIUM.logS @ pH7.4>
2.61674

$$$$
Compound 54_1_1
haSeeSAR  07122114523D 1   1.00000     0.00000     0
SeeSAR 11.0.2 hazemaj
 37 38  0  0  0  0            999 V2000
   22.6623   -8.3363    5.1977 Cl  0  0  0  0  0  0  0  0  0  0  0  0
   21.1316   -8.6020    4.3281 C   0  0  0  0  0  0  0  0  0  0  0  0
   20.6264   -7.6127    3.4913 C   0  0  0  0  0  0  0  0  0  0  0  0
   20.4522   -9.8035    4.4928 C   0  0  0  0  0  0  0  0  0  0  0  0
   21.5153   -6.0829    3.2986 Cl  0  0  0  0  0  0  0  0  0  0  0  0
   19.4320   -7.8105    2.8057 C   0  0  0  0  0  0  0  0  0  0  0  0
   19.2589   -9.9956    3.8056 C   0  0  0  0  0  0  0  0  0  0  0  0
   18.7475   -9.0104    2.9677 C   0  0  0  0  0  0  0  0  0  0  0  0
   18.5029  -11.3031    3.9732 C   0  0  2  0  0  0  0  0  0  0  0  0
   17.9750  -11.7088    2.7191 O   0  0  0  0  0  0  0  0  0  0  0  0
   17.3656  -11.1076    4.9625 C   0  0  0  0  0  0  0  0  0  0  0  0
   18.2550  -13.0852    2.5105 C   0  0  0  0  0  0  0  0  0  0  0  0
   16.4330  -10.3528    4.6867 O   0  0  0  0  0  0  0  0  0  0  0  0
   17.3778  -11.7485    6.1197 N   0  0  0  0  0  0  0  0  0  0  0  0
   17.6690  -13.5253    1.1789 C   0  0  0  0  0  0  0  0  0  0  0  0
   16.2778  -11.5593    7.0763 C   0  0  0  0  0  0  0  0  0  0  0  0
   15.2562  -12.6709    6.8999 C   0  0  0  0  0  0  0  0  0  0  0  0
   13.9454  -12.0805    6.4080 C   0  0  0  0  0  0  0  0  0  0  0  0
   13.6343  -10.8065    6.3769 N   0  0  0  0  0  0  0  0  0  0  0  0
   12.8890  -12.7838    5.9156 N   0  0  0  0  0  0  0  0  0  0  0  0
   12.4663  -10.6923    5.9079 O   0  0  0  0  0  0  0  0  0  0  0  0
   11.9849  -11.8815    5.6183 C   0  0  0  0  0  0  0  0  0  0  0  0
   20.8146  -10.5158    5.0938 H   0  0  0  0  0  0  0  0  0  0  0  0
   19.0701   -7.0987    2.2038 H   0  0  0  0  0  0  0  0  0  0  0  0
   17.8873   -9.1648    2.4816 H   0  0  0  0  0  0  0  0  0  0  0  0
   19.1256  -12.0065    4.3160 H   0  0  0  0  0  0  0  0  0  0  0  0
   17.8477  -13.6237    3.2482 H   0  0  0  0  0  0  0  0  0  0  0  0
   19.2449  -13.2265    2.5021 H   0  0  0  0  0  0  0  0  0  0  0  0
   18.1354  -12.3616    6.3437 H   0  0  0  0  0  0  0  0  0  0  0  0
   17.8662  -14.4946    1.0320 H   0  0  0  0  0  0  0  0  0  0  0  0
   16.6791  -13.3840    1.1873 H   0  0  0  0  0  0  0  0  0  0  0  0
   18.0763  -12.9869    0.4411 H   0  0  0  0  0  0  0  0  0  0  0  0
   15.8406  -10.6754    6.9110 H   0  0  0  0  0  0  0  0  0  0  0  0
   16.6390  -11.5835    8.0086 H   0  0  0  0  0  0  0  0  0  0  0  0
   15.1073  -13.1291    7.7762 H   0  0  0  0  0  0  0  0  0  0  0  0
   15.5955  -13.3324    6.2312 H   0  0  0  0  0  0  0  0  0  0  0  0
   11.0800  -12.0668    5.2352 H   0  0  0  0  0  0  0  0  0  0  0  0
  1  2  1  0  0  0  0
  2  3  2  0  0  0  0
  2  4  1  0  0  0  0
  3  5  1  0  0  0  0
  3  6  1  0  0  0  0
  4  7  2  0  0  0  0
  6  8  2  0  0  0  0
  7  9  1  0  0  0  0
  9 10  1  0  0  0  0
  9 11  1  0  0  0  0
 10 12  1  0  0  0  0
 11 13  2  0  0  0  0
 11 14  1  0  0  0  0
 12 15  1  0  0  0  0
 14 16  1  0  0  0  0
 16 17  1  0  0  0  0
 17 18  1  0  0  0  0
 18 19  2  0  0  0  0
 18 20  1  0  0  0  0
 19 21  1  0  0  0  0
 20 22  2  0  0  0  0
  7  8  1  0  0  0  0
 21 22  1  0  0  0  0
  4 23  1  0  0  0  0
  6 24  1  0  0  0  0
  8 25  1  0  0  0  0
  9 26  1  0  0  0  0
 12 27  1  0  0  0  0
 12 28  1  0  0  0  0
 14 29  1  0  0  0  0
 15 30  1  0  0  0  0
 15 31  1  0  0  0  0
 15 32  1  0  0  0  0
 16 33  1  0  0  0  0
 16 34  1  0  0  0  0
 17 35  1  0  0  0  0
 17 36  1  0  0  0  0
 22 37  1  0  0  0  0
M  END
> <BIOSOLVEIT.HYDE_ESTIMATED_AFFINITY_LOWER_BOUNDARY [nM]>
799568036.325560

> <BIOSOLVEIT.HYDE_ESTIMATED_AFFINITY_UPPER_BOUNDARY [nM]>
79441811829.308807

> <BIOSOLVEIT.HYDE_LIGAND_EFFICIENCY range: ++, +, 0, -, -->
--

> <BIOSOLVEIT.HYDE_LIGAND_LIPOPHILIC_EFFICIENCY range: ++, +, 0, -, -->
--

> <BIOSOLVEIT.INTER_CLASH range: red, yellow, green>
green

> <BIOSOLVEIT.INTRA_CLASH range: red, yellow, green>
green

> <BIOSOLVEIT.LOGP>
2.8129

> <BIOSOLVEIT.MOLECULAR WEIGHT>
344.197

> <BIOSOLVEIT.MOLECULE_CHECKSUM>
NS4xNDU1OzA=

> <BIOSOLVEIT.TORSION_QUALITY range: red, yellow, green, not rotatable>
yellow

> <BIOSOLVEIT.TPSA>
77.25

> <BIOSOLVEIT.SEESAR_FAVORITE>
favorite

> <smc_score>
0.625

> <QED_score>
0.836

> <distance>
0.623

> <SimilarityPheSA_1>
0.643

> <Smiles>
CCOC(C(=O)NCCc1ncon1)c1ccc(Cl)c(Cl)c1

> <Similarity_SkelSpheres>
0.699

> <Cluster No>
26.0

> <QueryID>
JAG-UCB-a3ef7265-20

> <SimilarityPheSA>
0.6434

> <Postera series>
3-aminopyridine-like

> <PDB_code>
Mpro-x10324

> <Approach>
DGM_focussed_RL

> <ID>
20210618_53

> <SimilarityPheSA_2>
0.652

> <OPTIBRIUM.logD>
2.96825

> <OPTIBRIUM.BBB category>
-

> <OPTIBRIUM.logP>
2.96825

> <OPTIBRIUM.P-gp category>
no

> <OPTIBRIUM.logS>
2.06405

> <OPTIBRIUM.HIA category>
+

> <OPTIBRIUM.PPB90 category>
high

> <OPTIBRIUM.2D6 affinity category>
high

> <OPTIBRIUM.hERG pIC50>
4.39491

> <OPTIBRIUM.2C9 pKi>
4.88786

> <OPTIBRIUM.BBB log([brain]:[blood])>
-0.130455

> <OPTIBRIUM.logS @ pH7.4>
2.06405

$$$$
Compound 114_1_001
haSeeSAR  07122114523D 1   1.00000     0.00000     0
SeeSAR 11.0.2 hazemaj
 44 47  0  0  0  0            999 V2000
   22.4791  -10.8377    7.0214 Cl  0  0  0  0  0  0  0  0  0  0  0  0
   21.9099  -10.5194    5.3635 C   0  0  0  0  0  0  0  0  0  0  0  0
   22.7591   -9.8514    4.4884 C   0  0  0  0  0  0  0  0  0  0  0  0
   20.6562  -10.9102    4.9011 C   0  0  0  0  0  0  0  0  0  0  0  0
   24.3649   -9.3343    5.0575 Cl  0  0  0  0  0  0  0  0  0  0  0  0
   22.3709   -9.5812    3.1806 C   0  0  0  0  0  0  0  0  0  0  0  0
   20.2387  -10.6400    3.5956 C   0  0  0  0  0  0  0  0  0  0  0  0
   19.7483  -11.6468    5.8713 C   0  0  2  0  0  0  0  0  0  0  0  0
   21.1134   -9.9786    2.7437 C   0  0  0  0  0  0  0  0  0  0  0  0
   18.8801  -10.9823    3.0000 C   0  0  0  0  0  0  0  0  0  0  0  0
   18.8639  -12.4880    4.9691 C   0  0  0  0  0  0  0  0  0  0  0  0
   18.9540  -10.7222    6.7833 C   0  0  0  0  0  0  0  0  0  0  0  0
   18.1188  -11.5680    4.1061 N   0  0  0  0  0  0  0  0  0  0  0  0
   16.7633  -11.2744    4.3101 C   0  0  0  0  0  0  0  0  0  0  0  0
   16.3651  -10.1130    4.2217 O   0  0  0  0  0  0  0  0  0  0  0  0
   15.7853  -12.3902    4.6405 C   0  0  0  0  0  0  0  0  0  0  0  0
   14.7407  -11.8755    5.6185 C   0  0  0  0  0  0  0  0  0  0  0  0
   14.8829  -11.9807    7.0021 C   0  0  0  0  0  0  0  0  0  0  0  0
   13.5987  -11.2747    5.0972 C   0  0  0  0  0  0  0  0  0  0  0  0
   13.8868  -11.4865    7.8399 C   0  0  0  0  0  0  0  0  0  0  0  0
   16.0007  -12.5694    7.5891 C   0  0  0  0  0  0  0  0  0  0  0  0
   12.6507  -10.8060    5.9227 N   0  0  0  0  0  0  0  0  0  0  0  0
   12.7696  -10.8973    7.2558 C   0  0  0  0  0  0  0  0  0  0  0  0
   14.0003  -11.5743    9.2239 C   0  0  0  0  0  0  0  0  0  0  0  0
   16.1409  -12.6721    8.9686 C   0  0  0  0  0  0  0  0  0  0  0  0
   15.1287  -12.1680    9.7797 C   0  0  0  0  0  0  0  0  0  0  0  0
   22.9924   -9.1042    2.5590 H   0  0  0  0  0  0  0  0  0  0  0  0
   20.3056  -12.2558    6.4356 H   0  0  0  0  0  0  0  0  0  0  0  0
   20.8344   -9.7859    1.8030 H   0  0  0  0  0  0  0  0  0  0  0  0
   18.9791  -11.6408    2.2539 H   0  0  0  0  0  0  0  0  0  0  0  0
   18.4277  -10.1581    2.6595 H   0  0  0  0  0  0  0  0  0  0  0  0
   18.2291  -13.0292    5.5206 H   0  0  0  0  0  0  0  0  0  0  0  0
   19.4264  -13.0993    4.4123 H   0  0  0  0  0  0  0  0  0  0  0  0
   18.3800  -11.2684    7.3934 H   0  0  0  0  0  0  0  0  0  0  0  0
   19.5845  -10.1677    7.3264 H   0  0  0  0  0  0  0  0  0  0  0  0
   18.3759  -10.1234    6.2290 H   0  0  0  0  0  0  0  0  0  0  0  0
   16.2796  -13.1554    5.0528 H   0  0  0  0  0  0  0  0  0  0  0  0
   15.3346  -12.6974    3.8023 H   0  0  0  0  0  0  0  0  0  0  0  0
   13.4849  -11.1922    4.1072 H   0  0  0  0  0  0  0  0  0  0  0  0
   16.7245  -12.9290    7.0003 H   0  0  0  0  0  0  0  0  0  0  0  0
   12.0428  -10.5358    7.8398 H   0  0  0  0  0  0  0  0  0  0  0  0
   13.2773  -11.2141    9.8134 H   0  0  0  0  0  0  0  0  0  0  0  0
   16.9515  -13.0991    9.3692 H   0  0  0  0  0  0  0  0  0  0  0  0
   15.2136  -12.2333   10.7739 H   0  0  0  0  0  0  0  0  0  0  0  0
  1  2  1  0  0  0  0
  2  3  2  0  0  0  0
  2  4  1  0  0  0  0
  3  5  1  0  0  0  0
  3  6  1  0  0  0  0
  4  7  2  0  0  0  0
  4  8  1  0  0  0  0
  6  9  2  0  0  0  0
  7 10  1  0  0  0  0
  8 11  1  0  0  0  0
  8 12  1  0  0  0  0
 10 13  1  0  0  0  0
 13 14  1  0  0  0  0
 14 15  2  0  0  0  0
 14 16  1  0  0  0  0
 16 17  1  0  0  0  0
 17 18  1  0  0  0  0
 17 19  2  0  0  0  0
 18 20  1  0  0  0  0
 18 21  2  0  0  0  0
 19 22  1  0  0  0  0
 20 23  1  0  0  0  0
 20 24  2  0  0  0  0
 21 25  1  0  0  0  0
 24 26  1  0  0  0  0
  7  9  1  0  0  0  0
 11 13  1  0  0  0  0
 22 23  2  0  0  0  0
 25 26  2  0  0  0  0
  6 27  1  0  0  0  0
  8 28  1  0  0  0  0
  9 29  1  0  0  0  0
 10 30  1  0  0  0  0
 10 31  1  0  0  0  0
 11 32  1  0  0  0  0
 11 33  1  0  0  0  0
 12 34  1  0  0  0  0
 12 35  1  0  0  0  0
 12 36  1  0  0  0  0
 16 37  1  0  0  0  0
 16 38  1  0  0  0  0
 19 39  1  0  0  0  0
 21 40  1  0  0  0  0
 23 41  1  0  0  0  0
 24 42  1  0  0  0  0
 25 43  1  0  0  0  0
 26 44  1  0  0  0  0
M  END
> <BIOSOLVEIT.HYDE_ESTIMATED_AFFINITY_LOWER_BOUNDARY [nM]>
23854144.253494

> <BIOSOLVEIT.HYDE_ESTIMATED_AFFINITY_UPPER_BOUNDARY [nM]>
2370050268.447319

> <BIOSOLVEIT.HYDE_LIGAND_EFFICIENCY range: ++, +, 0, -, -->
--

> <BIOSOLVEIT.HYDE_LIGAND_LIPOPHILIC_EFFICIENCY range: ++, +, 0, -, -->
--

> <BIOSOLVEIT.INTER_CLASH range: red, yellow, green>
green

> <BIOSOLVEIT.INTRA_CLASH range: red, yellow, green>
green

> <BIOSOLVEIT.LOGP>
5.23

> <BIOSOLVEIT.MOLECULAR WEIGHT>
385.292

> <BIOSOLVEIT.MOLECULE_CHECKSUM>
LTMuNTYwODg7MC4xMzY5NTc=

> <BIOSOLVEIT.TORSION_QUALITY range: red, yellow, green, not rotatable>
red

> <BIOSOLVEIT.TPSA>
33.2

> <BIOSOLVEIT.SEESAR_FAVORITE>
favorite

> <smc_score>
0.938

> <QED_score>
0.605

> <distance>
0.586

> <SimilarityPheSA_1>
0.647

> <Smiles>
CC1CN(C(=O)Cc2cncc3ccccc23)Cc2ccc(Cl)c(Cl)c21

> <Similarity_SkelSpheres>
0.781

> <Cluster No>
53.0

> <QueryID>
PET-UNK-1901c25b-1

> <SimilarityPheSA>
0.6473

> <Postera series>
3-aminopyridine-like

> <PDB_code>
Mpro-x11790

> <Approach>
DGM_focussed_RL

> <ID>
20210618_113

> <SimilarityPheSA_2>
0.8

> <OPTIBRIUM.logD>
4.40624

> <OPTIBRIUM.BBB category>
+

> <OPTIBRIUM.logP>
4.40624

> <OPTIBRIUM.P-gp category>
no

> <OPTIBRIUM.logS>
0.321175

> <OPTIBRIUM.HIA category>
+

> <OPTIBRIUM.PPB90 category>
high

> <OPTIBRIUM.2D6 affinity category>
medium

> <OPTIBRIUM.hERG pIC50>
5.38808

> <OPTIBRIUM.2C9 pKi>
5.86156

> <OPTIBRIUM.BBB log([brain]:[blood])>
-0.366431

> <OPTIBRIUM.logS @ pH7.4>
0.321175

$$$$
Compound 114_1_003
haSeeSAR  07122114523D 1   1.00000     0.00000     0
SeeSAR 11.0.2 hazemaj
 44 47  0  0  0  0            999 V2000
   22.9260  -11.2127    6.4840 Cl  0  0  0  0  0  0  0  0  0  0  0  0
   21.6559  -12.4541    6.3474 C   0  0  0  0  0  0  0  0  0  0  0  0
   21.9690  -13.6422    6.9995 C   0  0  0  0  0  0  0  0  0  0  0  0
   20.4482  -12.2834    5.6580 C   0  0  0  0  0  0  0  0  0  0  0  0
   23.5124  -13.8224    7.8687 Cl  0  0  0  0  0  0  0  0  0  0  0  0
   21.0533  -14.6883    6.9624 C   0  0  0  0  0  0  0  0  0  0  0  0
   19.5308  -13.3441    5.6738 C   0  0  0  0  0  0  0  0  0  0  0  0
   20.0760  -11.0023    4.9009 C   0  0  2  0  0  0  0  0  0  0  0  0
   19.8397  -14.5363    6.3003 C   0  0  0  0  0  0  0  0  0  0  0  0
   18.1544  -13.2897    5.0288 C   0  0  0  0  0  0  0  0  0  0  0  0
   18.9631  -11.1562    3.8703 C   0  0  0  0  0  0  0  0  0  0  0  0
   21.2196  -10.4034    4.0937 C   0  0  0  0  0  0  0  0  0  0  0  0
   17.8856  -11.9634    4.4548 N   0  0  0  0  0  0  0  0  0  0  0  0
   16.5909  -11.4267    4.4295 C   0  0  0  0  0  0  0  0  0  0  0  0
   16.4304  -10.2121    4.3099 O   0  0  0  0  0  0  0  0  0  0  0  0
   15.3852  -12.3444    4.5497 C   0  0  0  0  0  0  0  0  0  0  0  0
   14.4600  -11.8258    5.6395 C   0  0  0  0  0  0  0  0  0  0  0  0
   14.7418  -11.9607    6.9989 C   0  0  0  0  0  0  0  0  0  0  0  0
   13.2849  -11.1899    5.2497 C   0  0  0  0  0  0  0  0  0  0  0  0
   13.8499  -11.4607    7.9437 C   0  0  0  0  0  0  0  0  0  0  0  0
   15.8999  -12.5851    7.4567 C   0  0  0  0  0  0  0  0  0  0  0  0
   12.4388  -10.7165    6.1770 N   0  0  0  0  0  0  0  0  0  0  0  0
   12.6927  -10.8360    7.4887 C   0  0  0  0  0  0  0  0  0  0  0  0
   14.1036  -11.5777    9.3067 C   0  0  0  0  0  0  0  0  0  0  0  0
   16.1795  -12.7174    8.8122 C   0  0  0  0  0  0  0  0  0  0  0  0
   15.2689  -12.2068    9.7324 C   0  0  0  0  0  0  0  0  0  0  0  0
   21.2685  -15.5542    7.4140 H   0  0  0  0  0  0  0  0  0  0  0  0
   19.7826  -10.3215    5.5720 H   0  0  0  0  0  0  0  0  0  0  0  0
   19.1871  -15.2937    6.2777 H   0  0  0  0  0  0  0  0  0  0  0  0
   17.4619  -13.4913    5.7216 H   0  0  0  0  0  0  0  0  0  0  0  0
   18.1080  -13.9748    4.3019 H   0  0  0  0  0  0  0  0  0  0  0  0
   19.3206  -11.6125    3.0553 H   0  0  0  0  0  0  0  0  0  0  0  0
   18.6099  -10.2550    3.6198 H   0  0  0  0  0  0  0  0  0  0  0  0
   20.9031   -9.5755    3.6306 H   0  0  0  0  0  0  0  0  0  0  0  0
   21.9759  -10.1740    4.7065 H   0  0  0  0  0  0  0  0  0  0  0  0
   21.5312  -11.0671    3.4138 H   0  0  0  0  0  0  0  0  0  0  0  0
   15.6909  -13.2675    4.7834 H   0  0  0  0  0  0  0  0  0  0  0  0
   14.8947  -12.3663    3.6786 H   0  0  0  0  0  0  0  0  0  0  0  0
   13.0712  -11.0860    4.2784 H   0  0  0  0  0  0  0  0  0  0  0  0
   16.5502  -12.9492    6.7899 H   0  0  0  0  0  0  0  0  0  0  0  0
   12.0391  -10.4698    8.1511 H   0  0  0  0  0  0  0  0  0  0  0  0
   13.4544  -11.2130    9.9741 H   0  0  0  0  0  0  0  0  0  0  0  0
   17.0167  -13.1699    9.1193 H   0  0  0  0  0  0  0  0  0  0  0  0
   15.4546  -12.2931   10.7111 H   0  0  0  0  0  0  0  0  0  0  0  0
  1  2  1  0  0  0  0
  2  3  2  0  0  0  0
  2  4  1  0  0  0  0
  3  5  1  0  0  0  0
  3  6  1  0  0  0  0
  4  7  2  0  0  0  0
  4  8  1  0  0  0  0
  6  9  2  0  0  0  0
  7 10  1  0  0  0  0
  8 11  1  0  0  0  0
  8 12  1  0  0  0  0
 10 13  1  0  0  0  0
 13 14  1  0  0  0  0
 14 15  2  0  0  0  0
 14 16  1  0  0  0  0
 16 17  1  0  0  0  0
 17 18  1  0  0  0  0
 17 19  2  0  0  0  0
 18 20  1  0  0  0  0
 18 21  2  0  0  0  0
 19 22  1  0  0  0  0
 20 23  1  0  0  0  0
 20 24  2  0  0  0  0
 21 25  1  0  0  0  0
 24 26  1  0  0  0  0
  7  9  1  0  0  0  0
 11 13  1  0  0  0  0
 22 23  2  0  0  0  0
 25 26  2  0  0  0  0
  6 27  1  0  0  0  0
  8 28  1  0  0  0  0
  9 29  1  0  0  0  0
 10 30  1  0  0  0  0
 10 31  1  0  0  0  0
 11 32  1  0  0  0  0
 11 33  1  0  0  0  0
 12 34  1  0  0  0  0
 12 35  1  0  0  0  0
 12 36  1  0  0  0  0
 16 37  1  0  0  0  0
 16 38  1  0  0  0  0
 19 39  1  0  0  0  0
 21 40  1  0  0  0  0
 23 41  1  0  0  0  0
 24 42  1  0  0  0  0
 25 43  1  0  0  0  0
 26 44  1  0  0  0  0
M  END
> <BIOSOLVEIT.HYDE_ESTIMATED_AFFINITY_LOWER_BOUNDARY [nM]>
200093838.191394

> <BIOSOLVEIT.HYDE_ESTIMATED_AFFINITY_UPPER_BOUNDARY [nM]>
19880505872.714264

> <BIOSOLVEIT.HYDE_LIGAND_EFFICIENCY range: ++, +, 0, -, -->
--

> <BIOSOLVEIT.HYDE_LIGAND_LIPOPHILIC_EFFICIENCY range: ++, +, 0, -, -->
--

> <BIOSOLVEIT.INTER_CLASH range: red, yellow, green>
green

> <BIOSOLVEIT.INTRA_CLASH range: red, yellow, green>
yellow

> <BIOSOLVEIT.LOGP>
5.23

> <BIOSOLVEIT.MOLECULAR WEIGHT>
385.292

> <BIOSOLVEIT.MOLECULE_CHECKSUM>
MS43MTE0NDsw

> <BIOSOLVEIT.TORSION_QUALITY range: red, yellow, green, not rotatable>
green

> <BIOSOLVEIT.TPSA>
33.2

> <BIOSOLVEIT.SEESAR_FAVORITE>
favorite

> <smc_score>
0.938

> <QED_score>
0.605

> <distance>
0.586

> <SimilarityPheSA_1>
0.647

> <Smiles>
CC1CN(C(=O)Cc2cncc3ccccc23)Cc2ccc(Cl)c(Cl)c21

> <Similarity_SkelSpheres>
0.781

> <Cluster No>
53.0

> <QueryID>
PET-UNK-1901c25b-1

> <SimilarityPheSA>
0.6473

> <Postera series>
3-aminopyridine-like

> <PDB_code>
Mpro-x11790

> <Approach>
DGM_focussed_RL

> <ID>
20210618_113

> <SimilarityPheSA_2>
0.8

> <OPTIBRIUM.logD>
4.40624

> <OPTIBRIUM.BBB category>
+

> <OPTIBRIUM.logP>
4.40624

> <OPTIBRIUM.P-gp category>
no

> <OPTIBRIUM.logS>
0.321175

> <OPTIBRIUM.HIA category>
+

> <OPTIBRIUM.PPB90 category>
high

> <OPTIBRIUM.2D6 affinity category>
medium

> <OPTIBRIUM.hERG pIC50>
5.38808

> <OPTIBRIUM.2C9 pKi>
5.86156

> <OPTIBRIUM.BBB log([brain]:[blood])>
-0.366431

> <OPTIBRIUM.logS @ pH7.4>
0.321175

$$$$
Compound 114_1_004
haSeeSAR  07122114523D 1   1.00000     0.00000     0
SeeSAR 11.0.2 hazemaj
 44 47  0  0  0  0            999 V2000
   22.4796  -10.8379    7.0195 Cl  0  0  0  0  0  0  0  0  0  0  0  0
   21.9101  -10.5193    5.3618 C   0  0  0  0  0  0  0  0  0  0  0  0
   22.7590   -9.8513    4.4866 C   0  0  0  0  0  0  0  0  0  0  0  0
   20.6562  -10.9101    4.8995 C   0  0  0  0  0  0  0  0  0  0  0  0
   24.3649   -9.3342    5.0554 Cl  0  0  0  0  0  0  0  0  0  0  0  0
   22.3707   -9.5808    3.1789 C   0  0  0  0  0  0  0  0  0  0  0  0
   20.2385  -10.6396    3.5941 C   0  0  0  0  0  0  0  0  0  0  0  0
   19.7485  -11.6469    5.8697 C   0  0  2  0  0  0  0  0  0  0  0  0
   21.1130   -9.9782    2.7422 C   0  0  0  0  0  0  0  0  0  0  0  0
   18.8798  -10.9819    2.9988 C   0  0  0  0  0  0  0  0  0  0  0  0
   18.8639  -12.4879    4.9676 C   0  0  0  0  0  0  0  0  0  0  0  0
   18.9544  -10.7225    6.7820 C   0  0  0  0  0  0  0  0  0  0  0  0
   18.1187  -11.5678    4.1048 N   0  0  0  0  0  0  0  0  0  0  0  0
   16.7633  -11.2741    4.3092 C   0  0  0  0  0  0  0  0  0  0  0  0
   16.3650  -10.1127    4.2211 O   0  0  0  0  0  0  0  0  0  0  0  0
   15.7853  -12.3901    4.6395 C   0  0  0  0  0  0  0  0  0  0  0  0
   14.7408  -11.8755    5.6177 C   0  0  0  0  0  0  0  0  0  0  0  0
   14.8831  -11.9807    7.0012 C   0  0  0  0  0  0  0  0  0  0  0  0
   13.5987  -11.2747    5.0965 C   0  0  0  0  0  0  0  0  0  0  0  0
   13.8871  -11.4866    7.8392 C   0  0  0  0  0  0  0  0  0  0  0  0
   16.0010  -12.5693    7.5881 C   0  0  0  0  0  0  0  0  0  0  0  0
   12.6507  -10.8062    5.9222 N   0  0  0  0  0  0  0  0  0  0  0  0
   12.7697  -10.8975    7.2552 C   0  0  0  0  0  0  0  0  0  0  0  0
   14.0008  -11.5745    9.2231 C   0  0  0  0  0  0  0  0  0  0  0  0
   16.1414  -12.6722    8.9676 C   0  0  0  0  0  0  0  0  0  0  0  0
   15.1293  -12.1681    9.7788 C   0  0  0  0  0  0  0  0  0  0  0  0
   22.9920   -9.1038    2.5573 H   0  0  0  0  0  0  0  0  0  0  0  0
   20.3059  -12.2561    6.4339 H   0  0  0  0  0  0  0  0  0  0  0  0
   20.8339   -9.7852    1.8015 H   0  0  0  0  0  0  0  0  0  0  0  0
   18.9787  -11.6402    2.2525 H   0  0  0  0  0  0  0  0  0  0  0  0
   18.4274  -10.1576    2.6584 H   0  0  0  0  0  0  0  0  0  0  0  0
   18.2293  -13.0292    5.5191 H   0  0  0  0  0  0  0  0  0  0  0  0
   19.4264  -13.0990    4.4105 H   0  0  0  0  0  0  0  0  0  0  0  0
   18.3805  -11.2686    7.3922 H   0  0  0  0  0  0  0  0  0  0  0  0
   19.5850  -10.1679    7.3252 H   0  0  0  0  0  0  0  0  0  0  0  0
   18.3762  -10.1235    6.2280 H   0  0  0  0  0  0  0  0  0  0  0  0
   16.2797  -13.1553    5.0516 H   0  0  0  0  0  0  0  0  0  0  0  0
   15.3345  -12.6971    3.8013 H   0  0  0  0  0  0  0  0  0  0  0  0
   13.4846  -11.1922    4.1065 H   0  0  0  0  0  0  0  0  0  0  0  0
   16.7248  -12.9289    6.9992 H   0  0  0  0  0  0  0  0  0  0  0  0
   12.0430  -10.5362    7.8394 H   0  0  0  0  0  0  0  0  0  0  0  0
   13.2779  -11.2143    9.8128 H   0  0  0  0  0  0  0  0  0  0  0  0
   16.9521  -13.0991    9.3681 H   0  0  0  0  0  0  0  0  0  0  0  0
   15.2143  -12.2335   10.7730 H   0  0  0  0  0  0  0  0  0  0  0  0
  1  2  1  0  0  0  0
  2  3  2  0  0  0  0
  2  4  1  0  0  0  0
  3  5  1  0  0  0  0
  3  6  1  0  0  0  0
  4  7  2  0  0  0  0
  4  8  1  0  0  0  0
  6  9  2  0  0  0  0
  7 10  1  0  0  0  0
  8 11  1  0  0  0  0
  8 12  1  0  0  0  0
 10 13  1  0  0  0  0
 13 14  1  0  0  0  0
 14 15  2  0  0  0  0
 14 16  1  0  0  0  0
 16 17  1  0  0  0  0
 17 18  1  0  0  0  0
 17 19  2  0  0  0  0
 18 20  1  0  0  0  0
 18 21  2  0  0  0  0
 19 22  1  0  0  0  0
 20 23  1  0  0  0  0
 20 24  2  0  0  0  0
 21 25  1  0  0  0  0
 24 26  1  0  0  0  0
  7  9  1  0  0  0  0
 11 13  1  0  0  0  0
 22 23  2  0  0  0  0
 25 26  2  0  0  0  0
  6 27  1  0  0  0  0
  8 28  1  0  0  0  0
  9 29  1  0  0  0  0
 10 30  1  0  0  0  0
 10 31  1  0  0  0  0
 11 32  1  0  0  0  0
 11 33  1  0  0  0  0
 12 34  1  0  0  0  0
 12 35  1  0  0  0  0
 12 36  1  0  0  0  0
 16 37  1  0  0  0  0
 16 38  1  0  0  0  0
 19 39  1  0  0  0  0
 21 40  1  0  0  0  0
 23 41  1  0  0  0  0
 24 42  1  0  0  0  0
 25 43  1  0  0  0  0
 26 44  1  0  0  0  0
M  END
> <BIOSOLVEIT.HYDE_ESTIMATED_AFFINITY_LOWER_BOUNDARY [nM]>
23918706.436259

> <BIOSOLVEIT.HYDE_ESTIMATED_AFFINITY_UPPER_BOUNDARY [nM]>
2376464903.026854

> <BIOSOLVEIT.HYDE_LIGAND_EFFICIENCY range: ++, +, 0, -, -->
--

> <BIOSOLVEIT.HYDE_LIGAND_LIPOPHILIC_EFFICIENCY range: ++, +, 0, -, -->
--

> <BIOSOLVEIT.INTER_CLASH range: red, yellow, green>
green

> <BIOSOLVEIT.INTRA_CLASH range: red, yellow, green>
green

> <BIOSOLVEIT.LOGP>
5.23

> <BIOSOLVEIT.MOLECULAR WEIGHT>
385.292

> <BIOSOLVEIT.MOLECULE_CHECKSUM>
LTMuNTU0MTg7MC4xMzY2OTk=

> <BIOSOLVEIT.TORSION_QUALITY range: red, yellow, green, not rotatable>
red

> <BIOSOLVEIT.TPSA>
33.2

> <BIOSOLVEIT.SEESAR_FAVORITE>
favorite

> <smc_score>
0.938

> <QED_score>
0.605

> <distance>
0.586

> <SimilarityPheSA_1>
0.647

> <Smiles>
CC1CN(C(=O)Cc2cncc3ccccc23)Cc2ccc(Cl)c(Cl)c21

> <Similarity_SkelSpheres>
0.781

> <Cluster No>
53.0

> <QueryID>
PET-UNK-1901c25b-1

> <SimilarityPheSA>
0.6473

> <Postera series>
3-aminopyridine-like

> <PDB_code>
Mpro-x11790

> <Approach>
DGM_focussed_RL

> <ID>
20210618_113

> <SimilarityPheSA_2>
0.8

> <OPTIBRIUM.logD>
4.40624

> <OPTIBRIUM.BBB category>
+

> <OPTIBRIUM.logP>
4.40624

> <OPTIBRIUM.P-gp category>
no

> <OPTIBRIUM.logS>
0.321175

> <OPTIBRIUM.HIA category>
+

> <OPTIBRIUM.PPB90 category>
high

> <OPTIBRIUM.2D6 affinity category>
medium

> <OPTIBRIUM.hERG pIC50>
5.38808

> <OPTIBRIUM.2C9 pKi>
5.86156

> <OPTIBRIUM.BBB log([brain]:[blood])>
-0.366431

> <OPTIBRIUM.logS @ pH7.4>
0.321175

$$$$
Compound 114_1_005
haSeeSAR  07122114523D 1   1.00000     0.00000     0
SeeSAR 11.0.2 hazemaj
 44 47  0  0  0  0            999 V2000
   22.4795  -10.8382    7.0193 Cl  0  0  0  0  0  0  0  0  0  0  0  0
   21.9099  -10.5195    5.3618 C   0  0  0  0  0  0  0  0  0  0  0  0
   22.7588   -9.8513    4.4865 C   0  0  0  0  0  0  0  0  0  0  0  0
   20.6560  -10.9103    4.8996 C   0  0  0  0  0  0  0  0  0  0  0  0
   24.3647   -9.3343    5.0553 Cl  0  0  0  0  0  0  0  0  0  0  0  0
   22.3703   -9.5808    3.1788 C   0  0  0  0  0  0  0  0  0  0  0  0
   20.2382  -10.6398    3.5941 C   0  0  0  0  0  0  0  0  0  0  0  0
   19.7484  -11.6471    5.8697 C   0  0  2  0  0  0  0  0  0  0  0  0
   21.1127   -9.9782    2.7423 C   0  0  0  0  0  0  0  0  0  0  0  0
   18.8795  -10.9820    2.9989 C   0  0  0  0  0  0  0  0  0  0  0  0
   18.8638  -12.4881    4.9675 C   0  0  0  0  0  0  0  0  0  0  0  0
   18.9543  -10.7228    6.7821 C   0  0  0  0  0  0  0  0  0  0  0  0
   18.1185  -11.5680    4.1049 N   0  0  0  0  0  0  0  0  0  0  0  0
   16.7630  -11.2745    4.3094 C   0  0  0  0  0  0  0  0  0  0  0  0
   16.3647  -10.1130    4.2212 O   0  0  0  0  0  0  0  0  0  0  0  0
   15.7853  -12.3902    4.6400 C   0  0  0  0  0  0  0  0  0  0  0  0
   14.7406  -11.8756    5.6182 C   0  0  0  0  0  0  0  0  0  0  0  0
   14.8829  -11.9807    7.0017 C   0  0  0  0  0  0  0  0  0  0  0  0
   13.5986  -11.2747    5.0969 C   0  0  0  0  0  0  0  0  0  0  0  0
   13.8869  -11.4865    7.8396 C   0  0  0  0  0  0  0  0  0  0  0  0
   16.0008  -12.5694    7.5887 C   0  0  0  0  0  0  0  0  0  0  0  0
   12.6506  -10.8062    5.9225 N   0  0  0  0  0  0  0  0  0  0  0  0
   12.7696  -10.8975    7.2556 C   0  0  0  0  0  0  0  0  0  0  0  0
   14.0004  -11.5744    9.2236 C   0  0  0  0  0  0  0  0  0  0  0  0
   16.1410  -12.6722    8.9682 C   0  0  0  0  0  0  0  0  0  0  0  0
   15.1288  -12.1680    9.7793 C   0  0  0  0  0  0  0  0  0  0  0  0
   22.9916   -9.1037    2.5573 H   0  0  0  0  0  0  0  0  0  0  0  0
   20.3059  -12.2563    6.4338 H   0  0  0  0  0  0  0  0  0  0  0  0
   20.8334   -9.7852    1.8016 H   0  0  0  0  0  0  0  0  0  0  0  0
   18.9783  -11.6402    2.2525 H   0  0  0  0  0  0  0  0  0  0  0  0
   18.4270  -10.1577    2.6585 H   0  0  0  0  0  0  0  0  0  0  0  0
   18.2292  -13.0295    5.5191 H   0  0  0  0  0  0  0  0  0  0  0  0
   19.4262  -13.0993    4.4105 H   0  0  0  0  0  0  0  0  0  0  0  0
   18.3805  -11.2690    7.3923 H   0  0  0  0  0  0  0  0  0  0  0  0
   19.5849  -10.1683    7.3252 H   0  0  0  0  0  0  0  0  0  0  0  0
   18.3761  -10.1238    6.2282 H   0  0  0  0  0  0  0  0  0  0  0  0
   16.2797  -13.1554    5.0524 H   0  0  0  0  0  0  0  0  0  0  0  0
   15.3344  -12.6977    3.8020 H   0  0  0  0  0  0  0  0  0  0  0  0
   13.4847  -11.1924    4.1068 H   0  0  0  0  0  0  0  0  0  0  0  0
   16.7246  -12.9291    6.9998 H   0  0  0  0  0  0  0  0  0  0  0  0
   12.0429  -10.5359    7.8396 H   0  0  0  0  0  0  0  0  0  0  0  0
   13.2775  -11.2141    9.8132 H   0  0  0  0  0  0  0  0  0  0  0  0
   16.9516  -13.0992    9.3687 H   0  0  0  0  0  0  0  0  0  0  0  0
   15.2138  -12.2334   10.7735 H   0  0  0  0  0  0  0  0  0  0  0  0
  1  2  1  0  0  0  0
  2  3  2  0  0  0  0
  2  4  1  0  0  0  0
  3  5  1  0  0  0  0
  3  6  1  0  0  0  0
  4  7  2  0  0  0  0
  4  8  1  0  0  0  0
  6  9  2  0  0  0  0
  7 10  1  0  0  0  0
  8 11  1  0  0  0  0
  8 12  1  0  0  0  0
 10 13  1  0  0  0  0
 13 14  1  0  0  0  0
 14 15  2  0  0  0  0
 14 16  1  0  0  0  0
 16 17  1  0  0  0  0
 17 18  1  0  0  0  0
 17 19  2  0  0  0  0
 18 20  1  0  0  0  0
 18 21  2  0  0  0  0
 19 22  1  0  0  0  0
 20 23  1  0  0  0  0
 20 24  2  0  0  0  0
 21 25  1  0  0  0  0
 24 26  1  0  0  0  0
  7  9  1  0  0  0  0
 11 13  1  0  0  0  0
 22 23  2  0  0  0  0
 25 26  2  0  0  0  0
  6 27  1  0  0  0  0
  8 28  1  0  0  0  0
  9 29  1  0  0  0  0
 10 30  1  0  0  0  0
 10 31  1  0  0  0  0
 11 32  1  0  0  0  0
 11 33  1  0  0  0  0
 12 34  1  0  0  0  0
 12 35  1  0  0  0  0
 12 36  1  0  0  0  0
 16 37  1  0  0  0  0
 16 38  1  0  0  0  0
 19 39  1  0  0  0  0
 21 40  1  0  0  0  0
 23 41  1  0  0  0  0
 24 42  1  0  0  0  0
 25 43  1  0  0  0  0
 26 44  1  0  0  0  0
M  END
> <BIOSOLVEIT.HYDE_ESTIMATED_AFFINITY_LOWER_BOUNDARY [nM]>
23893834.900313

> <BIOSOLVEIT.HYDE_ESTIMATED_AFFINITY_UPPER_BOUNDARY [nM]>
2373993768.878465

> <BIOSOLVEIT.HYDE_LIGAND_EFFICIENCY range: ++, +, 0, -, -->
--

> <BIOSOLVEIT.HYDE_LIGAND_LIPOPHILIC_EFFICIENCY range: ++, +, 0, -, -->
--

> <BIOSOLVEIT.INTER_CLASH range: red, yellow, green>
green

> <BIOSOLVEIT.INTRA_CLASH range: red, yellow, green>
green

> <BIOSOLVEIT.LOGP>
5.23

> <BIOSOLVEIT.MOLECULAR WEIGHT>
385.292

> <BIOSOLVEIT.MOLECULE_CHECKSUM>
LTMuNTU2NzY7MC4xMzY3OTg=

> <BIOSOLVEIT.TORSION_QUALITY range: red, yellow, green, not rotatable>
red

> <BIOSOLVEIT.TPSA>
33.2

> <BIOSOLVEIT.SEESAR_FAVORITE>
favorite

> <smc_score>
0.938

> <QED_score>
0.605

> <distance>
0.586

> <SimilarityPheSA_1>
0.647

> <Smiles>
CC1CN(C(=O)Cc2cncc3ccccc23)Cc2ccc(Cl)c(Cl)c21

> <Similarity_SkelSpheres>
0.781

> <Cluster No>
53.0

> <QueryID>
PET-UNK-1901c25b-1

> <SimilarityPheSA>
0.6473

> <Postera series>
3-aminopyridine-like

> <PDB_code>
Mpro-x11790

> <Approach>
DGM_focussed_RL

> <ID>
20210618_113

> <SimilarityPheSA_2>
0.8

> <OPTIBRIUM.logD>
4.40624

> <OPTIBRIUM.BBB category>
+

> <OPTIBRIUM.logP>
4.40624

> <OPTIBRIUM.P-gp category>
no

> <OPTIBRIUM.logS>
0.321175

> <OPTIBRIUM.HIA category>
+

> <OPTIBRIUM.PPB90 category>
high

> <OPTIBRIUM.2D6 affinity category>
medium

> <OPTIBRIUM.hERG pIC50>
5.38808

> <OPTIBRIUM.2C9 pKi>
5.86156

> <OPTIBRIUM.BBB log([brain]:[blood])>
-0.366431

> <OPTIBRIUM.logS @ pH7.4>
0.321175

$$$$
Compound 114_1_007
haSeeSAR  07122114523D 1   1.00000     0.00000     0
SeeSAR 11.0.2 hazemaj
 44 47  0  0  0  0            999 V2000
   22.4836  -10.8376    7.0123 Cl  0  0  0  0  0  0  0  0  0  0  0  0
   21.9128  -10.5180    5.3554 C   0  0  0  0  0  0  0  0  0  0  0  0
   22.7611   -9.8492    4.4799 C   0  0  0  0  0  0  0  0  0  0  0  0
   20.6586  -10.9085    4.8938 C   0  0  0  0  0  0  0  0  0  0  0  0
   24.3674   -9.3326    5.0479 Cl  0  0  0  0  0  0  0  0  0  0  0  0
   22.3717   -9.5780    3.1727 C   0  0  0  0  0  0  0  0  0  0  0  0
   20.2398  -10.6371    3.5889 C   0  0  0  0  0  0  0  0  0  0  0  0
   19.7517  -11.6459    5.8643 C   0  0  2  0  0  0  0  0  0  0  0  0
   21.1138   -9.9752    2.7367 C   0  0  0  0  0  0  0  0  0  0  0  0
   18.8807  -10.9791    2.9944 C   0  0  0  0  0  0  0  0  0  0  0  0
   18.8664  -12.4864    4.9622 C   0  0  0  0  0  0  0  0  0  0  0  0
   18.9583  -10.7221    6.7778 C   0  0  0  0  0  0  0  0  0  0  0  0
   18.1205  -11.5657    4.1007 N   0  0  0  0  0  0  0  0  0  0  0  0
   16.7652  -11.2723    4.3063 C   0  0  0  0  0  0  0  0  0  0  0  0
   16.3669  -10.1107    4.2196 O   0  0  0  0  0  0  0  0  0  0  0  0
   15.7875  -12.3884    4.6361 C   0  0  0  0  0  0  0  0  0  0  0  0
   14.7428  -11.8745    5.6144 C   0  0  0  0  0  0  0  0  0  0  0  0
   14.8850  -11.9802    6.9979 C   0  0  0  0  0  0  0  0  0  0  0  0
   13.6007  -11.2736    5.0933 C   0  0  0  0  0  0  0  0  0  0  0  0
   13.8888  -11.4866    7.8360 C   0  0  0  0  0  0  0  0  0  0  0  0
   16.0028  -12.5689    7.5847 C   0  0  0  0  0  0  0  0  0  0  0  0
   12.6525  -10.8056    5.9191 N   0  0  0  0  0  0  0  0  0  0  0  0
   12.7714  -10.8974    7.2522 C   0  0  0  0  0  0  0  0  0  0  0  0
   14.0023  -11.5750    9.2199 C   0  0  0  0  0  0  0  0  0  0  0  0
   16.1430  -12.6723    8.9641 C   0  0  0  0  0  0  0  0  0  0  0  0
   15.1308  -12.1688    9.7754 C   0  0  0  0  0  0  0  0  0  0  0  0
   22.9925   -9.1005    2.5510 H   0  0  0  0  0  0  0  0  0  0  0  0
   20.3096  -12.2554    6.4275 H   0  0  0  0  0  0  0  0  0  0  0  0
   20.8338   -9.7815    1.7964 H   0  0  0  0  0  0  0  0  0  0  0  0
   18.9790  -11.6369    2.2476 H   0  0  0  0  0  0  0  0  0  0  0  0
   18.4280  -10.1545    2.6549 H   0  0  0  0  0  0  0  0  0  0  0  0
   18.2322  -13.0281    5.5139 H   0  0  0  0  0  0  0  0  0  0  0  0
   19.4285  -13.0971    4.4044 H   0  0  0  0  0  0  0  0  0  0  0  0
   18.3849  -11.2687    7.3880 H   0  0  0  0  0  0  0  0  0  0  0  0
   19.5892  -10.1679    7.3208 H   0  0  0  0  0  0  0  0  0  0  0  0
   18.3796  -10.1228    6.2246 H   0  0  0  0  0  0  0  0  0  0  0  0
   16.2821  -13.1537    5.0481 H   0  0  0  0  0  0  0  0  0  0  0  0
   15.3368  -12.6953    3.7978 H   0  0  0  0  0  0  0  0  0  0  0  0
   13.4867  -11.1907    4.1034 H   0  0  0  0  0  0  0  0  0  0  0  0
   16.7268  -12.9281    6.9957 H   0  0  0  0  0  0  0  0  0  0  0  0
   12.0445  -10.5363    7.8363 H   0  0  0  0  0  0  0  0  0  0  0  0
   13.2793  -11.2153    9.8096 H   0  0  0  0  0  0  0  0  0  0  0  0
   16.9538  -13.0993    9.3645 H   0  0  0  0  0  0  0  0  0  0  0  0
   15.2157  -12.2345   10.7696 H   0  0  0  0  0  0  0  0  0  0  0  0
  1  2  1  0  0  0  0
  2  3  2  0  0  0  0
  2  4  1  0  0  0  0
  3  5  1  0  0  0  0
  3  6  1  0  0  0  0
  4  7  2  0  0  0  0
  4  8  1  0  0  0  0
  6  9  2  0  0  0  0
  7 10  1  0  0  0  0
  8 11  1  0  0  0  0
  8 12  1  0  0  0  0
 10 13  1  0  0  0  0
 13 14  1  0  0  0  0
 14 15  2  0  0  0  0
 14 16  1  0  0  0  0
 16 17  1  0  0  0  0
 17 18  1  0  0  0  0
 17 19  2  0  0  0  0
 18 20  1  0  0  0  0
 18 21  2  0  0  0  0
 19 22  1  0  0  0  0
 20 23  1  0  0  0  0
 20 24  2  0  0  0  0
 21 25  1  0  0  0  0
 24 26  1  0  0  0  0
  7  9  1  0  0  0  0
 11 13  1  0  0  0  0
 22 23  2  0  0  0  0
 25 26  2  0  0  0  0
  6 27  1  0  0  0  0
  8 28  1  0  0  0  0
  9 29  1  0  0  0  0
 10 30  1  0  0  0  0
 10 31  1  0  0  0  0
 11 32  1  0  0  0  0
 11 33  1  0  0  0  0
 12 34  1  0  0  0  0
 12 35  1  0  0  0  0
 12 36  1  0  0  0  0
 16 37  1  0  0  0  0
 16 38  1  0  0  0  0
 19 39  1  0  0  0  0
 21 40  1  0  0  0  0
 23 41  1  0  0  0  0
 24 42  1  0  0  0  0
 25 43  1  0  0  0  0
 26 44  1  0  0  0  0
M  END
> <BIOSOLVEIT.HYDE_ESTIMATED_AFFINITY_LOWER_BOUNDARY [nM]>
23803896.780221

> <BIOSOLVEIT.HYDE_ESTIMATED_AFFINITY_UPPER_BOUNDARY [nM]>
2365057884.891019

> <BIOSOLVEIT.HYDE_LIGAND_EFFICIENCY range: ++, +, 0, -, -->
--

> <BIOSOLVEIT.HYDE_LIGAND_LIPOPHILIC_EFFICIENCY range: ++, +, 0, -, -->
--

> <BIOSOLVEIT.INTER_CLASH range: red, yellow, green>
green

> <BIOSOLVEIT.INTRA_CLASH range: red, yellow, green>
green

> <BIOSOLVEIT.LOGP>
5.23

> <BIOSOLVEIT.MOLECULAR WEIGHT>
385.292

> <BIOSOLVEIT.MOLECULE_CHECKSUM>
LTMuNTY2MTE7MC4xMzcxNTg=

> <BIOSOLVEIT.TORSION_QUALITY range: red, yellow, green, not rotatable>
red

> <BIOSOLVEIT.TPSA>
33.2

> <BIOSOLVEIT.SEESAR_FAVORITE>
favorite

> <smc_score>
0.938

> <QED_score>
0.605

> <distance>
0.586

> <SimilarityPheSA_1>
0.647

> <Smiles>
CC1CN(C(=O)Cc2cncc3ccccc23)Cc2ccc(Cl)c(Cl)c21

> <Similarity_SkelSpheres>
0.781

> <Cluster No>
53.0

> <QueryID>
PET-UNK-1901c25b-1

> <SimilarityPheSA>
0.6473

> <Postera series>
3-aminopyridine-like

> <PDB_code>
Mpro-x11790

> <Approach>
DGM_focussed_RL

> <ID>
20210618_113

> <SimilarityPheSA_2>
0.8

> <OPTIBRIUM.logD>
4.40624

> <OPTIBRIUM.BBB category>
+

> <OPTIBRIUM.logP>
4.40624

> <OPTIBRIUM.P-gp category>
no

> <OPTIBRIUM.logS>
0.321175

> <OPTIBRIUM.HIA category>
+

> <OPTIBRIUM.PPB90 category>
high

> <OPTIBRIUM.2D6 affinity category>
medium

> <OPTIBRIUM.hERG pIC50>
5.38808

> <OPTIBRIUM.2C9 pKi>
5.86156

> <OPTIBRIUM.BBB log([brain]:[blood])>
-0.366431

> <OPTIBRIUM.logS @ pH7.4>
0.321175

$$$$
Compound 115_1_001
haSeeSAR  07122114523D 1   1.00000     0.00000     0
SeeSAR 11.0.2 hazemaj
 54 57  0  0  0  0            999 V2000
   21.9262  -10.3962    5.8913 Cl  0  0  0  0  0  0  0  0  0  0  0  0
   21.0512  -10.2464    4.3485 C   0  0  0  0  0  0  0  0  0  0  0  0
   21.6908   -9.7349    3.2241 C   0  0  0  0  0  0  0  0  0  0  0  0
   19.7198  -10.6418    4.2625 C   0  0  0  0  0  0  0  0  0  0  0  0
   23.3938   -9.2309    3.3430 Cl  0  0  0  0  0  0  0  0  0  0  0  0
   21.0142   -9.6144    2.0145 C   0  0  0  0  0  0  0  0  0  0  0  0
   19.0364  -10.5249    3.0561 C   0  0  0  0  0  0  0  0  0  0  0  0
   19.0121  -11.2018    5.4857 C   0  0  0  0  0  0  0  0  0  0  0  0
   19.6840  -10.0130    1.9368 C   0  0  0  0  0  0  0  0  0  0  0  0
   17.8499  -11.9944    5.0593 N   0  0  0  0  0  0  0  0  0  0  0  0
   16.6870  -11.4010    4.8453 C   0  0  0  0  0  0  0  0  0  0  0  0
   17.9797  -13.4465    4.8706 C   0  0  0  0  0  0  0  0  0  0  0  0
   16.6332  -10.1769    4.7267 O   0  0  0  0  0  0  0  0  0  0  0  0
   15.4172  -12.2306    4.7460 C   0  0  0  0  0  0  0  0  0  0  0  0
   18.7703  -13.7239    3.6024 C   0  0  1  0  0  0  0  0  0  0  0  0
   14.4291  -11.7746    5.8093 C   0  0  0  0  0  0  0  0  0  0  0  0
   19.5847  -15.0066    3.6871 C   0  0  0  0  0  0  0  0  0  0  0  0
   17.8832  -13.8570    2.3737 C   0  0  0  0  0  0  0  0  0  0  0  0
   14.6607  -11.9300    7.1755 C   0  0  0  0  0  0  0  0  0  0  0  0
   13.2449  -11.1773    5.3886 C   0  0  0  0  0  0  0  0  0  0  0  0
   18.6943  -16.2393    3.6629 C   0  0  0  0  0  0  0  0  0  0  0  0
   16.8185  -14.9108    2.6363 C   0  0  0  0  0  0  0  0  0  0  0  0
   13.7069  -11.4870    8.0866 C   0  0  0  0  0  0  0  0  0  0  0  0
   15.8225  -12.5190    7.6701 C   0  0  0  0  0  0  0  0  0  0  0  0
   12.3396  -10.7574    6.2848 N   0  0  0  0  0  0  0  0  0  0  0  0
   19.0922  -17.3010    4.1076 O   0  0  0  0  0  0  0  0  0  0  0  0
   17.3918  -16.1685    3.1479 N   0  0  0  0  0  0  0  0  0  0  0  0
   12.5430  -10.8977    7.6032 C   0  0  0  0  0  0  0  0  0  0  0  0
   13.9127  -11.6290    9.4547 C   0  0  0  0  0  0  0  0  0  0  0  0
   16.0488  -12.6714    9.0339 C   0  0  0  0  0  0  0  0  0  0  0  0
   15.0807  -12.2197    9.9250 C   0  0  0  0  0  0  0  0  0  0  0  0
   21.4793   -9.2454    1.2098 H   0  0  0  0  0  0  0  0  0  0  0  0
   18.0797  -10.8092    2.9938 H   0  0  0  0  0  0  0  0  0  0  0  0
   18.7063  -10.4486    6.0680 H   0  0  0  0  0  0  0  0  0  0  0  0
   19.6431  -11.7844    5.9981 H   0  0  0  0  0  0  0  0  0  0  0  0
   19.1902   -9.9310    1.0711 H   0  0  0  0  0  0  0  0  0  0  0  0
   17.0703  -13.8552    4.7927 H   0  0  0  0  0  0  0  0  0  0  0  0
   18.4572  -13.8431    5.6546 H   0  0  0  0  0  0  0  0  0  0  0  0
   15.6376  -13.1957    4.8878 H   0  0  0  0  0  0  0  0  0  0  0  0
   15.0109  -12.1110    3.8401 H   0  0  0  0  0  0  0  0  0  0  0  0
   19.4003  -12.9619    3.4529 H   0  0  0  0  0  0  0  0  0  0  0  0
   20.1091  -15.0020    4.5386 H   0  0  0  0  0  0  0  0  0  0  0  0
   20.2121  -15.0443    2.9094 H   0  0  0  0  0  0  0  0  0  0  0  0
   18.4386  -14.1311    1.5886 H   0  0  0  0  0  0  0  0  0  0  0  0
   17.4445  -12.9792    2.1815 H   0  0  0  0  0  0  0  0  0  0  0  0
   13.0675  -11.0604    4.4115 H   0  0  0  0  0  0  0  0  0  0  0  0
   16.3367  -15.1013    1.7811 H   0  0  0  0  0  0  0  0  0  0  0  0
   16.1722  -14.5540    3.3108 H   0  0  0  0  0  0  0  0  0  0  0  0
   16.5149  -12.8421    7.0249 H   0  0  0  0  0  0  0  0  0  0  0  0
   16.8341  -16.9982    3.1272 H   0  0  0  0  0  0  0  0  0  0  0  0
   11.8493  -10.5744    8.2469 H   0  0  0  0  0  0  0  0  0  0  0  0
   13.2206  -11.3062   10.1004 H   0  0  0  0  0  0  0  0  0  0  0  0
   16.8902  -13.0969    9.3671 H   0  0  0  0  0  0  0  0  0  0  0  0
   15.2254  -12.3205   10.9093 H   0  0  0  0  0  0  0  0  0  0  0  0
  1  2  1  0  0  0  0
  2  3  2  0  0  0  0
  2  4  1  0  0  0  0
  3  5  1  0  0  0  0
  3  6  1  0  0  0  0
  4  7  2  0  0  0  0
  4  8  1  0  0  0  0
  6  9  2  0  0  0  0
  8 10  1  0  0  0  0
 10 11  1  0  0  0  0
 10 12  1  0  0  0  0
 11 13  2  0  0  0  0
 11 14  1  0  0  0  0
 12 15  1  0  0  0  0
 14 16  1  0  0  0  0
 15 17  1  0  0  0  0
 15 18  1  0  0  0  0
 16 19  1  0  0  0  0
 16 20  2  0  0  0  0
 17 21  1  0  0  0  0
 18 22  1  0  0  0  0
 19 23  1  0  0  0  0
 19 24  2  0  0  0  0
 20 25  1  0  0  0  0
 21 26  2  0  0  0  0
 21 27  1  0  0  0  0
 23 28  1  0  0  0  0
 23 29  2  0  0  0  0
 24 30  1  0  0  0  0
 29 31  1  0  0  0  0
  7  9  1  0  0  0  0
 22 27  1  0  0  0  0
 25 28  2  0  0  0  0
 30 31  2  0  0  0  0
  6 32  1  0  0  0  0
  7 33  1  0  0  0  0
  8 34  1  0  0  0  0
  8 35  1  0  0  0  0
  9 36  1  0  0  0  0
 12 37  1  0  0  0  0
 12 38  1  0  0  0  0
 14 39  1  0  0  0  0
 14 40  1  0  0  0  0
 15 41  1  0  0  0  0
 17 42  1  0  0  0  0
 17 43  1  0  0  0  0
 18 44  1  0  0  0  0
 18 45  1  0  0  0  0
 20 46  1  0  0  0  0
 22 47  1  0  0  0  0
 22 48  1  0  0  0  0
 24 49  1  0  0  0  0
 27 50  1  0  0  0  0
 28 51  1  0  0  0  0
 29 52  1  0  0  0  0
 30 53  1  0  0  0  0
 31 54  1  0  0  0  0
M  END
> <BIOSOLVEIT.HYDE_ESTIMATED_AFFINITY_LOWER_BOUNDARY [nM]>
5533530.377075

> <BIOSOLVEIT.HYDE_ESTIMATED_AFFINITY_UPPER_BOUNDARY [nM]>
549788959.783213

> <BIOSOLVEIT.HYDE_LIGAND_EFFICIENCY range: ++, +, 0, -, -->
--

> <BIOSOLVEIT.HYDE_LIGAND_LIPOPHILIC_EFFICIENCY range: ++, +, 0, -, -->
--

> <BIOSOLVEIT.INTER_CLASH range: red, yellow, green>
green

> <BIOSOLVEIT.INTRA_CLASH range: red, yellow, green>
green

> <BIOSOLVEIT.LOGP>
4.6391

> <BIOSOLVEIT.MOLECULAR WEIGHT>
456.371

> <BIOSOLVEIT.MOLECULE_CHECKSUM>
LTcuMTgyOTY7MC4yMzE3MDk=

> <BIOSOLVEIT.TORSION_QUALITY range: red, yellow, green, not rotatable>
green

> <BIOSOLVEIT.TPSA>
62.3

> <BIOSOLVEIT.SEESAR_FAVORITE>
favorite

> <smc_score>
0.563

> <QED_score>
0.588

> <distance>
0.577

> <SimilarityPheSA_1>
0.637

> <Smiles>
O=C1CC(CN(Cc2cccc(Cl)c2Cl)C(=O)Cc2cncc3ccccc23)CCN1

> <Similarity_SkelSpheres>
0.752

> <Cluster No>
53.0

> <QueryID>
ALP-POS-c59291d4-4

> <SimilarityPheSA>
0.6367

> <Postera series>
3-aminopyridine-like

> <PDB_code>
Mpro-x10820

> <Approach>
DGM_focussed_RL

> <ID>
20210618_114

> <SimilarityPheSA_2>
0.708

> <OPTIBRIUM.logD>
3.63568

> <OPTIBRIUM.BBB category>
-

> <OPTIBRIUM.logP>
3.63568

> <OPTIBRIUM.P-gp category>
yes

> <OPTIBRIUM.logS>
0.933199

> <OPTIBRIUM.HIA category>
+

> <OPTIBRIUM.PPB90 category>
high

> <OPTIBRIUM.2D6 affinity category>
high

> <OPTIBRIUM.hERG pIC50>
5.21475

> <OPTIBRIUM.2C9 pKi>
5.6623

> <OPTIBRIUM.BBB log([brain]:[blood])>
-0.305748

> <OPTIBRIUM.logS @ pH7.4>
0.933199

$$$$
Compound 115_1_002
haSeeSAR  07122114523D 1   1.00000     0.00000     0
SeeSAR 11.0.2 hazemaj
 54 57  0  0  0  0            999 V2000
   21.7492  -10.4072    5.8947 Cl  0  0  0  0  0  0  0  0  0  0  0  0
   20.9651  -10.3076    4.2998 C   0  0  0  0  0  0  0  0  0  0  0  0
   21.6182   -9.7010    3.2319 C   0  0  0  0  0  0  0  0  0  0  0  0
   19.6918  -10.8380    4.1161 C   0  0  0  0  0  0  0  0  0  0  0  0
   23.2464   -9.0245    3.4757 Cl  0  0  0  0  0  0  0  0  0  0  0  0
   21.0126   -9.6189    1.9822 C   0  0  0  0  0  0  0  0  0  0  0  0
   19.0796  -10.7604    2.8691 C   0  0  0  0  0  0  0  0  0  0  0  0
   18.9701  -11.5027    5.2772 C   0  0  0  0  0  0  0  0  0  0  0  0
   19.7402  -10.1528    1.8068 C   0  0  0  0  0  0  0  0  0  0  0  0
   17.7490  -12.1568    4.7850 N   0  0  0  0  0  0  0  0  0  0  0  0
   16.6006  -11.4999    4.7854 C   0  0  0  0  0  0  0  0  0  0  0  0
   17.8039  -13.5408    4.2925 C   0  0  0  0  0  0  0  0  0  0  0  0
   16.5942  -10.2717    4.8675 O   0  0  0  0  0  0  0  0  0  0  0  0
   15.2892  -12.2618    4.6843 C   0  0  0  0  0  0  0  0  0  0  0  0
   17.6539  -14.5008    5.4614 C   0  0  1  0  0  0  0  0  0  0  0  0
   14.3452  -11.7944    5.7822 C   0  0  0  0  0  0  0  0  0  0  0  0
   17.1008  -15.8548    5.0415 C   0  0  0  0  0  0  0  0  0  0  0  0
   18.9716  -14.7745    6.1705 C   0  0  0  0  0  0  0  0  0  0  0  0
   14.6282  -11.9437    7.1394 C   0  0  0  0  0  0  0  0  0  0  0  0
   13.1492  -11.1922    5.4041 C   0  0  0  0  0  0  0  0  0  0  0  0
   18.1160  -16.6501    4.2354 C   0  0  0  0  0  0  0  0  0  0  0  0
   19.9972  -15.2526    5.1546 C   0  0  0  0  0  0  0  0  0  0  0  0
   13.7127  -11.4903    8.0838 C   0  0  0  0  0  0  0  0  0  0  0  0
   15.8049  -12.5370    7.5924 C   0  0  0  0  0  0  0  0  0  0  0  0
   12.2813  -10.7622    6.3320 N   0  0  0  0  0  0  0  0  0  0  0  0
   17.7545  -17.5450    3.4926 O   0  0  0  0  0  0  0  0  0  0  0  0
   19.4837  -16.3515    4.3173 N   0  0  0  0  0  0  0  0  0  0  0  0
   12.5345  -10.8967    7.6423 C   0  0  0  0  0  0  0  0  0  0  0  0
   13.9701  -11.6263    9.4439 C   0  0  0  0  0  0  0  0  0  0  0  0
   16.0825  -12.6834    8.9472 C   0  0  0  0  0  0  0  0  0  0  0  0
   15.1519  -12.2214    9.8722 C   0  0  0  0  0  0  0  0  0  0  0  0
   21.4869   -9.1810    1.2183 H   0  0  0  0  0  0  0  0  0  0  0  0
   18.1647  -11.1417    2.7367 H   0  0  0  0  0  0  0  0  0  0  0  0
   18.7268  -10.8119    5.9580 H   0  0  0  0  0  0  0  0  0  0  0  0
   19.5690  -12.1860    5.6947 H   0  0  0  0  0  0  0  0  0  0  0  0
   19.2977  -10.0991    0.9116 H   0  0  0  0  0  0  0  0  0  0  0  0
   18.6821  -13.6995    3.8414 H   0  0  0  0  0  0  0  0  0  0  0  0
   17.0617  -13.6920    3.6397 H   0  0  0  0  0  0  0  0  0  0  0  0
   15.4636  -13.2408    4.7892 H   0  0  0  0  0  0  0  0  0  0  0  0
   14.8725  -12.0911    3.7915 H   0  0  0  0  0  0  0  0  0  0  0  0
   17.0214  -14.0948    6.1211 H   0  0  0  0  0  0  0  0  0  0  0  0
   16.2833  -15.7124    4.4834 H   0  0  0  0  0  0  0  0  0  0  0  0
   16.8586  -16.3745    5.8609 H   0  0  0  0  0  0  0  0  0  0  0  0
   18.8365  -15.4796    6.8665 H   0  0  0  0  0  0  0  0  0  0  0  0
   19.2978  -13.9351    6.6053 H   0  0  0  0  0  0  0  0  0  0  0  0
   12.9351  -11.0795    4.4338 H   0  0  0  0  0  0  0  0  0  0  0  0
   20.8089  -15.5727    5.6432 H   0  0  0  0  0  0  0  0  0  0  0  0
   20.2453  -14.4859    4.5625 H   0  0  0  0  0  0  0  0  0  0  0  0
   16.4700  -12.8675    6.9227 H   0  0  0  0  0  0  0  0  0  0  0  0
   20.1315  -16.9019    3.7906 H   0  0  0  0  0  0  0  0  0  0  0  0
   11.8679  -10.5660    8.3103 H   0  0  0  0  0  0  0  0  0  0  0  0
   13.3052  -11.2960   10.1139 H   0  0  0  0  0  0  0  0  0  0  0  0
   16.9337  -13.1120    9.2502 H   0  0  0  0  0  0  0  0  0  0  0  0
   15.3338  -12.3177   10.8509 H   0  0  0  0  0  0  0  0  0  0  0  0
  1  2  1  0  0  0  0
  2  3  2  0  0  0  0
  2  4  1  0  0  0  0
  3  5  1  0  0  0  0
  3  6  1  0  0  0  0
  4  7  2  0  0  0  0
  4  8  1  0  0  0  0
  6  9  2  0  0  0  0
  8 10  1  0  0  0  0
 10 11  1  0  0  0  0
 10 12  1  0  0  0  0
 11 13  2  0  0  0  0
 11 14  1  0  0  0  0
 12 15  1  0  0  0  0
 14 16  1  0  0  0  0
 15 17  1  0  0  0  0
 15 18  1  0  0  0  0
 16 19  1  0  0  0  0
 16 20  2  0  0  0  0
 17 21  1  0  0  0  0
 18 22  1  0  0  0  0
 19 23  1  0  0  0  0
 19 24  2  0  0  0  0
 20 25  1  0  0  0  0
 21 26  2  0  0  0  0
 21 27  1  0  0  0  0
 23 28  1  0  0  0  0
 23 29  2  0  0  0  0
 24 30  1  0  0  0  0
 29 31  1  0  0  0  0
  7  9  1  0  0  0  0
 22 27  1  0  0  0  0
 25 28  2  0  0  0  0
 30 31  2  0  0  0  0
  6 32  1  0  0  0  0
  7 33  1  0  0  0  0
  8 34  1  0  0  0  0
  8 35  1  0  0  0  0
  9 36  1  0  0  0  0
 12 37  1  0  0  0  0
 12 38  1  0  0  0  0
 14 39  1  0  0  0  0
 14 40  1  0  0  0  0
 15 41  1  0  0  0  0
 17 42  1  0  0  0  0
 17 43  1  0  0  0  0
 18 44  1  0  0  0  0
 18 45  1  0  0  0  0
 20 46  1  0  0  0  0
 22 47  1  0  0  0  0
 22 48  1  0  0  0  0
 24 49  1  0  0  0  0
 27 50  1  0  0  0  0
 28 51  1  0  0  0  0
 29 52  1  0  0  0  0
 30 53  1  0  0  0  0
 31 54  1  0  0  0  0
M  END
> <BIOSOLVEIT.HYDE_ESTIMATED_AFFINITY_LOWER_BOUNDARY [nM]>
132206411.870954

> <BIOSOLVEIT.HYDE_ESTIMATED_AFFINITY_UPPER_BOUNDARY [nM]>
13135488685.548208

> <BIOSOLVEIT.HYDE_LIGAND_EFFICIENCY range: ++, +, 0, -, -->
--

> <BIOSOLVEIT.HYDE_LIGAND_LIPOPHILIC_EFFICIENCY range: ++, +, 0, -, -->
--

> <BIOSOLVEIT.INTER_CLASH range: red, yellow, green>
green

> <BIOSOLVEIT.INTRA_CLASH range: red, yellow, green>
green

> <BIOSOLVEIT.LOGP>
4.6391

> <BIOSOLVEIT.MOLECULAR WEIGHT>
456.371

> <BIOSOLVEIT.MOLECULE_CHECKSUM>
MC42ODQxMDE7MA==

> <BIOSOLVEIT.TORSION_QUALITY range: red, yellow, green, not rotatable>
green

> <BIOSOLVEIT.TPSA>
62.3

> <BIOSOLVEIT.SEESAR_FAVORITE>
favorite

> <smc_score>
0.563

> <QED_score>
0.588

> <distance>
0.577

> <SimilarityPheSA_1>
0.637

> <Smiles>
O=C1CC(CN(Cc2cccc(Cl)c2Cl)C(=O)Cc2cncc3ccccc23)CCN1

> <Similarity_SkelSpheres>
0.752

> <Cluster No>
53.0

> <QueryID>
ALP-POS-c59291d4-4

> <SimilarityPheSA>
0.6367

> <Postera series>
3-aminopyridine-like

> <PDB_code>
Mpro-x10820

> <Approach>
DGM_focussed_RL

> <ID>
20210618_114

> <SimilarityPheSA_2>
0.708

> <OPTIBRIUM.logD>
3.63568

> <OPTIBRIUM.BBB category>
-

> <OPTIBRIUM.logP>
3.63568

> <OPTIBRIUM.P-gp category>
yes

> <OPTIBRIUM.logS>
0.933199

> <OPTIBRIUM.HIA category>
+

> <OPTIBRIUM.PPB90 category>
high

> <OPTIBRIUM.2D6 affinity category>
high

> <OPTIBRIUM.hERG pIC50>
5.21475

> <OPTIBRIUM.2C9 pKi>
5.6623

> <OPTIBRIUM.BBB log([brain]:[blood])>
-0.305748

> <OPTIBRIUM.logS @ pH7.4>
0.933199

$$$$
Compound 115_1_003
haSeeSAR  07122114523D 1   1.00000     0.00000     0
SeeSAR 11.0.2 hazemaj
 54 57  0  0  0  0            999 V2000
   21.8859  -10.1302    5.9653 Cl  0  0  0  0  0  0  0  0  0  0  0  0
   21.0245  -10.2140    4.4099 C   0  0  0  0  0  0  0  0  0  0  0  0
   21.6312   -9.7569    3.2445 C   0  0  0  0  0  0  0  0  0  0  0  0
   19.7368  -10.7385    4.3550 C   0  0  0  0  0  0  0  0  0  0  0  0
   23.2782   -9.0868    3.3237 Cl  0  0  0  0  0  0  0  0  0  0  0  0
   20.9651   -9.8187    2.0248 C   0  0  0  0  0  0  0  0  0  0  0  0
   19.0641  -10.8043    3.1388 C   0  0  0  0  0  0  0  0  0  0  0  0
   19.0653  -11.2404    5.6230 C   0  0  0  0  0  0  0  0  0  0  0  0
   19.6786  -10.3456    1.9786 C   0  0  0  0  0  0  0  0  0  0  0  0
   17.8781  -12.0315    5.2686 N   0  0  0  0  0  0  0  0  0  0  0  0
   16.7198  -11.4280    5.0577 C   0  0  0  0  0  0  0  0  0  0  0  0
   17.9779  -13.4932    5.1486 C   0  0  0  0  0  0  0  0  0  0  0  0
   16.6708  -10.2006    4.9780 O   0  0  0  0  0  0  0  0  0  0  0  0
   15.4495  -12.2503    4.9137 C   0  0  0  0  0  0  0  0  0  0  0  0
   18.5009  -14.0741    6.4523 C   0  0  1  0  0  0  0  0  0  0  0  0
   14.4263  -11.7867    5.9397 C   0  0  0  0  0  0  0  0  0  0  0  0
   17.5619  -15.1946    6.8860 C   0  0  0  0  0  0  0  0  0  0  0  0
   19.9672  -14.4641    6.2962 C   0  0  0  0  0  0  0  0  0  0  0  0
   14.6123  -11.9311    7.3141 C   0  0  0  0  0  0  0  0  0  0  0  0
   13.2565  -11.1934    5.4753 C   0  0  0  0  0  0  0  0  0  0  0  0
   18.1955  -16.0650    7.9576 C   0  0  0  0  0  0  0  0  0  0  0  0
   20.3261  -15.8969    6.6796 C   0  0  0  0  0  0  0  0  0  0  0  0
   13.6285  -11.4816    8.1893 C   0  0  0  0  0  0  0  0  0  0  0  0
   15.7573  -12.5155    7.8519 C   0  0  0  0  0  0  0  0  0  0  0  0
   12.3217  -10.7670    6.3375 N   0  0  0  0  0  0  0  0  0  0  0  0
   17.5541  -16.4727    8.9122 O   0  0  0  0  0  0  0  0  0  0  0  0
   19.5486  -16.3985    7.8299 N   0  0  0  0  0  0  0  0  0  0  0  0
   12.4812  -10.8968    7.6629 C   0  0  0  0  0  0  0  0  0  0  0  0
   13.7887  -11.6128    9.5647 C   0  0  0  0  0  0  0  0  0  0  0  0
   15.9380  -12.6569    9.2236 C   0  0  0  0  0  0  0  0  0  0  0  0
   14.9406  -12.1991   10.0783 C   0  0  0  0  0  0  0  0  0  0  0  0
   21.4062   -9.4881    1.1905 H   0  0  0  0  0  0  0  0  0  0  0  0
   18.1388  -11.1815    3.0989 H   0  0  0  0  0  0  0  0  0  0  0  0
   18.7905  -10.4607    6.1857 H   0  0  0  0  0  0  0  0  0  0  0  0
   19.7059  -11.8121    6.1356 H   0  0  0  0  0  0  0  0  0  0  0  0
   19.1927  -10.3950    1.1060 H   0  0  0  0  0  0  0  0  0  0  0  0
   18.6053  -13.7246    4.4052 H   0  0  0  0  0  0  0  0  0  0  0  0
   17.0742  -13.8741    4.9528 H   0  0  0  0  0  0  0  0  0  0  0  0
   15.6589  -13.2164    5.0647 H   0  0  0  0  0  0  0  0  0  0  0  0
   15.0770  -12.1298    3.9935 H   0  0  0  0  0  0  0  0  0  0  0  0
   18.4520  -13.3542    7.1447 H   0  0  0  0  0  0  0  0  0  0  0  0
   17.3445  -15.7625    6.0922 H   0  0  0  0  0  0  0  0  0  0  0  0
   16.7212  -14.7925    7.2486 H   0  0  0  0  0  0  0  0  0  0  0  0
   20.5093  -13.8496    6.8695 H   0  0  0  0  0  0  0  0  0  0  0  0
   20.2177  -14.3327    5.3371 H   0  0  0  0  0  0  0  0  0  0  0  0
   13.1118  -11.0842    4.4918 H   0  0  0  0  0  0  0  0  0  0  0  0
   21.2979  -15.9304    6.9129 H   0  0  0  0  0  0  0  0  0  0  0  0
   20.1514  -16.4903    5.8939 H   0  0  0  0  0  0  0  0  0  0  0  0
   16.4709  -12.8431    7.2326 H   0  0  0  0  0  0  0  0  0  0  0  0
   19.9886  -16.9762    8.5175 H   0  0  0  0  0  0  0  0  0  0  0  0
   11.7663  -10.5691    8.2806 H   0  0  0  0  0  0  0  0  0  0  0  0
   13.0753  -11.2854   10.1845 H   0  0  0  0  0  0  0  0  0  0  0  0
   16.7681  -13.0793    9.5879 H   0  0  0  0  0  0  0  0  0  0  0  0
   15.0524  -12.2920   11.0677 H   0  0  0  0  0  0  0  0  0  0  0  0
  1  2  1  0  0  0  0
  2  3  2  0  0  0  0
  2  4  1  0  0  0  0
  3  5  1  0  0  0  0
  3  6  1  0  0  0  0
  4  7  2  0  0  0  0
  4  8  1  0  0  0  0
  6  9  2  0  0  0  0
  8 10  1  0  0  0  0
 10 11  1  0  0  0  0
 10 12  1  0  0  0  0
 11 13  2  0  0  0  0
 11 14  1  0  0  0  0
 12 15  1  0  0  0  0
 14 16  1  0  0  0  0
 15 17  1  0  0  0  0
 15 18  1  0  0  0  0
 16 19  1  0  0  0  0
 16 20  2  0  0  0  0
 17 21  1  0  0  0  0
 18 22  1  0  0  0  0
 19 23  1  0  0  0  0
 19 24  2  0  0  0  0
 20 25  1  0  0  0  0
 21 26  2  0  0  0  0
 21 27  1  0  0  0  0
 23 28  1  0  0  0  0
 23 29  2  0  0  0  0
 24 30  1  0  0  0  0
 29 31  1  0  0  0  0
  7  9  1  0  0  0  0
 22 27  1  0  0  0  0
 25 28  2  0  0  0  0
 30 31  2  0  0  0  0
  6 32  1  0  0  0  0
  7 33  1  0  0  0  0
  8 34  1  0  0  0  0
  8 35  1  0  0  0  0
  9 36  1  0  0  0  0
 12 37  1  0  0  0  0
 12 38  1  0  0  0  0
 14 39  1  0  0  0  0
 14 40  1  0  0  0  0
 15 41  1  0  0  0  0
 17 42  1  0  0  0  0
 17 43  1  0  0  0  0
 18 44  1  0  0  0  0
 18 45  1  0  0  0  0
 20 46  1  0  0  0  0
 22 47  1  0  0  0  0
 22 48  1  0  0  0  0
 24 49  1  0  0  0  0
 27 50  1  0  0  0  0
 28 51  1  0  0  0  0
 29 52  1  0  0  0  0
 30 53  1  0  0  0  0
 31 54  1  0  0  0  0
M  END
> <BIOSOLVEIT.HYDE_ESTIMATED_AFFINITY_LOWER_BOUNDARY [nM]>
7451344.300863

> <BIOSOLVEIT.HYDE_ESTIMATED_AFFINITY_UPPER_BOUNDARY [nM]>
740335112.124856

> <BIOSOLVEIT.HYDE_LIGAND_EFFICIENCY range: ++, +, 0, -, -->
--

> <BIOSOLVEIT.HYDE_LIGAND_LIPOPHILIC_EFFICIENCY range: ++, +, 0, -, -->
--

> <BIOSOLVEIT.INTER_CLASH range: red, yellow, green>
green

> <BIOSOLVEIT.INTRA_CLASH range: red, yellow, green>
green

> <BIOSOLVEIT.LOGP>
4.6391

> <BIOSOLVEIT.MOLECULAR WEIGHT>
456.371

> <BIOSOLVEIT.MOLECULE_CHECKSUM>
LTYuNDQ1MzswLjIwNzkxMw==

> <BIOSOLVEIT.TORSION_QUALITY range: red, yellow, green, not rotatable>
yellow

> <BIOSOLVEIT.TPSA>
62.3

> <BIOSOLVEIT.SEESAR_FAVORITE>
favorite

> <smc_score>
0.563

> <QED_score>
0.588

> <distance>
0.577

> <SimilarityPheSA_1>
0.637

> <Smiles>
O=C1CC(CN(Cc2cccc(Cl)c2Cl)C(=O)Cc2cncc3ccccc23)CCN1

> <Similarity_SkelSpheres>
0.752

> <Cluster No>
53.0

> <QueryID>
ALP-POS-c59291d4-4

> <SimilarityPheSA>
0.6367

> <Postera series>
3-aminopyridine-like

> <PDB_code>
Mpro-x10820

> <Approach>
DGM_focussed_RL

> <ID>
20210618_114

> <SimilarityPheSA_2>
0.708

> <OPTIBRIUM.logD>
3.63568

> <OPTIBRIUM.BBB category>
-

> <OPTIBRIUM.logP>
3.63568

> <OPTIBRIUM.P-gp category>
yes

> <OPTIBRIUM.logS>
0.933199

> <OPTIBRIUM.HIA category>
+

> <OPTIBRIUM.PPB90 category>
high

> <OPTIBRIUM.2D6 affinity category>
high

> <OPTIBRIUM.hERG pIC50>
5.21475

> <OPTIBRIUM.2C9 pKi>
5.6623

> <OPTIBRIUM.BBB log([brain]:[blood])>
-0.305748

> <OPTIBRIUM.logS @ pH7.4>
0.933199

$$$$
Compound 115_1_004
haSeeSAR  07122114523D 1   1.00000     0.00000     0
SeeSAR 11.0.2 hazemaj
 54 57  0  0  0  0            999 V2000
   21.9263  -10.3962    5.8905 Cl  0  0  0  0  0  0  0  0  0  0  0  0
   21.0509  -10.2466    4.3479 C   0  0  0  0  0  0  0  0  0  0  0  0
   21.6903   -9.7349    3.2235 C   0  0  0  0  0  0  0  0  0  0  0  0
   19.7196  -10.6422    4.2621 C   0  0  0  0  0  0  0  0  0  0  0  0
   23.3930   -9.2305    3.3420 Cl  0  0  0  0  0  0  0  0  0  0  0  0
   21.0134   -9.6146    2.0139 C   0  0  0  0  0  0  0  0  0  0  0  0
   19.0360  -10.5256    3.0558 C   0  0  0  0  0  0  0  0  0  0  0  0
   19.0124  -11.2025    5.4854 C   0  0  0  0  0  0  0  0  0  0  0  0
   19.6832  -10.0135    1.9365 C   0  0  0  0  0  0  0  0  0  0  0  0
   17.8498  -11.9948    5.0592 N   0  0  0  0  0  0  0  0  0  0  0  0
   16.6869  -11.4011    4.8457 C   0  0  0  0  0  0  0  0  0  0  0  0
   17.9793  -13.4468    4.8705 C   0  0  0  0  0  0  0  0  0  0  0  0
   16.6334  -10.1770    4.7277 O   0  0  0  0  0  0  0  0  0  0  0  0
   15.4171  -12.2305    4.7461 C   0  0  0  0  0  0  0  0  0  0  0  0
   18.7687  -13.7244    3.6016 C   0  0  1  0  0  0  0  0  0  0  0  0
   14.4289  -11.7746    5.8093 C   0  0  0  0  0  0  0  0  0  0  0  0
   19.5846  -15.0060    3.6863 C   0  0  0  0  0  0  0  0  0  0  0  0
   17.8805  -13.8592    2.3740 C   0  0  0  0  0  0  0  0  0  0  0  0
   14.6605  -11.9300    7.1755 C   0  0  0  0  0  0  0  0  0  0  0  0
   13.2447  -11.1773    5.3888 C   0  0  0  0  0  0  0  0  0  0  0  0
   18.6956  -16.2397    3.6640 C   0  0  0  0  0  0  0  0  0  0  0  0
   16.8172  -14.9140    2.6384 C   0  0  0  0  0  0  0  0  0  0  0  0
   13.7068  -11.4871    8.0866 C   0  0  0  0  0  0  0  0  0  0  0  0
   15.8224  -12.5190    7.6703 C   0  0  0  0  0  0  0  0  0  0  0  0
   12.3393  -10.7574    6.2851 N   0  0  0  0  0  0  0  0  0  0  0  0
   19.0951  -17.3007    4.1089 O   0  0  0  0  0  0  0  0  0  0  0  0
   17.3925  -16.1707    3.1504 N   0  0  0  0  0  0  0  0  0  0  0  0
   12.5429  -10.8977    7.6034 C   0  0  0  0  0  0  0  0  0  0  0  0
   13.9125  -11.6291    9.4548 C   0  0  0  0  0  0  0  0  0  0  0  0
   16.0488  -12.6713    9.0340 C   0  0  0  0  0  0  0  0  0  0  0  0
   15.0806  -12.2198    9.9251 C   0  0  0  0  0  0  0  0  0  0  0  0
   21.4782   -9.2454    1.2091 H   0  0  0  0  0  0  0  0  0  0  0  0
   18.0794  -10.8101    2.9938 H   0  0  0  0  0  0  0  0  0  0  0  0
   18.7069  -10.4492    6.0680 H   0  0  0  0  0  0  0  0  0  0  0  0
   19.6432  -11.7853    5.9975 H   0  0  0  0  0  0  0  0  0  0  0  0
   19.1893   -9.9316    1.0709 H   0  0  0  0  0  0  0  0  0  0  0  0
   17.0698  -13.8554    4.7932 H   0  0  0  0  0  0  0  0  0  0  0  0
   18.4575  -13.8437    5.6540 H   0  0  0  0  0  0  0  0  0  0  0  0
   15.6373  -13.1956    4.8877 H   0  0  0  0  0  0  0  0  0  0  0  0
   15.0109  -12.1106    3.8403 H   0  0  0  0  0  0  0  0  0  0  0  0
   19.3978  -12.9618    3.4508 H   0  0  0  0  0  0  0  0  0  0  0  0
   20.1100  -15.0004    4.5372 H   0  0  0  0  0  0  0  0  0  0  0  0
   20.2112  -15.0437    2.9079 H   0  0  0  0  0  0  0  0  0  0  0  0
   18.4352  -14.1333    1.5884 H   0  0  0  0  0  0  0  0  0  0  0  0
   17.4406  -12.9820    2.1817 H   0  0  0  0  0  0  0  0  0  0  0  0
   13.0673  -11.0603    4.4117 H   0  0  0  0  0  0  0  0  0  0  0  0
   16.3346  -15.1056    1.7838 H   0  0  0  0  0  0  0  0  0  0  0  0
   16.1712  -14.5574    3.3134 H   0  0  0  0  0  0  0  0  0  0  0  0
   16.5148  -12.8419    7.0250 H   0  0  0  0  0  0  0  0  0  0  0  0
   16.8355  -17.0010    3.1308 H   0  0  0  0  0  0  0  0  0  0  0  0
   11.8492  -10.5746    8.2471 H   0  0  0  0  0  0  0  0  0  0  0  0
   13.2206  -11.3064   10.1006 H   0  0  0  0  0  0  0  0  0  0  0  0
   16.8902  -13.0968    9.3671 H   0  0  0  0  0  0  0  0  0  0  0  0
   15.2253  -12.3205   10.9094 H   0  0  0  0  0  0  0  0  0  0  0  0
  1  2  1  0  0  0  0
  2  3  2  0  0  0  0
  2  4  1  0  0  0  0
  3  5  1  0  0  0  0
  3  6  1  0  0  0  0
  4  7  2  0  0  0  0
  4  8  1  0  0  0  0
  6  9  2  0  0  0  0
  8 10  1  0  0  0  0
 10 11  1  0  0  0  0
 10 12  1  0  0  0  0
 11 13  2  0  0  0  0
 11 14  1  0  0  0  0
 12 15  1  0  0  0  0
 14 16  1  0  0  0  0
 15 17  1  0  0  0  0
 15 18  1  0  0  0  0
 16 19  1  0  0  0  0
 16 20  2  0  0  0  0
 17 21  1  0  0  0  0
 18 22  1  0  0  0  0
 19 23  1  0  0  0  0
 19 24  2  0  0  0  0
 20 25  1  0  0  0  0
 21 26  2  0  0  0  0
 21 27  1  0  0  0  0
 23 28  1  0  0  0  0
 23 29  2  0  0  0  0
 24 30  1  0  0  0  0
 29 31  1  0  0  0  0
  7  9  1  0  0  0  0
 22 27  1  0  0  0  0
 25 28  2  0  0  0  0
 30 31  2  0  0  0  0
  6 32  1  0  0  0  0
  7 33  1  0  0  0  0
  8 34  1  0  0  0  0
  8 35  1  0  0  0  0
  9 36  1  0  0  0  0
 12 37  1  0  0  0  0
 12 38  1  0  0  0  0
 14 39  1  0  0  0  0
 14 40  1  0  0  0  0
 15 41  1  0  0  0  0
 17 42  1  0  0  0  0
 17 43  1  0  0  0  0
 18 44  1  0  0  0  0
 18 45  1  0  0  0  0
 20 46  1  0  0  0  0
 22 47  1  0  0  0  0
 22 48  1  0  0  0  0
 24 49  1  0  0  0  0
 27 50  1  0  0  0  0
 28 51  1  0  0  0  0
 29 52  1  0  0  0  0
 30 53  1  0  0  0  0
 31 54  1  0  0  0  0
M  END
> <BIOSOLVEIT.HYDE_ESTIMATED_AFFINITY_LOWER_BOUNDARY [nM]>
5523055.207740

> <BIOSOLVEIT.HYDE_ESTIMATED_AFFINITY_UPPER_BOUNDARY [nM]>
548748189.775677

> <BIOSOLVEIT.HYDE_LIGAND_EFFICIENCY range: ++, +, 0, -, -->
--

> <BIOSOLVEIT.HYDE_LIGAND_LIPOPHILIC_EFFICIENCY range: ++, +, 0, -, -->
--

> <BIOSOLVEIT.INTER_CLASH range: red, yellow, green>
green

> <BIOSOLVEIT.INTRA_CLASH range: red, yellow, green>
green

> <BIOSOLVEIT.LOGP>
4.6391

> <BIOSOLVEIT.MOLECULAR WEIGHT>
456.371

> <BIOSOLVEIT.MOLECULE_CHECKSUM>
LTcuMTg3NjY7MC4yMzE4Ng==

> <BIOSOLVEIT.TORSION_QUALITY range: red, yellow, green, not rotatable>
green

> <BIOSOLVEIT.TPSA>
62.3

> <BIOSOLVEIT.SEESAR_FAVORITE>
favorite

> <smc_score>
0.563

> <QED_score>
0.588

> <distance>
0.577

> <SimilarityPheSA_1>
0.637

> <Smiles>
O=C1CC(CN(Cc2cccc(Cl)c2Cl)C(=O)Cc2cncc3ccccc23)CCN1

> <Similarity_SkelSpheres>
0.752

> <Cluster No>
53.0

> <QueryID>
ALP-POS-c59291d4-4

> <SimilarityPheSA>
0.6367

> <Postera series>
3-aminopyridine-like

> <PDB_code>
Mpro-x10820

> <Approach>
DGM_focussed_RL

> <ID>
20210618_114

> <SimilarityPheSA_2>
0.708

> <OPTIBRIUM.logD>
3.63568

> <OPTIBRIUM.BBB category>
-

> <OPTIBRIUM.logP>
3.63568

> <OPTIBRIUM.P-gp category>
yes

> <OPTIBRIUM.logS>
0.933199

> <OPTIBRIUM.HIA category>
+

> <OPTIBRIUM.PPB90 category>
high

> <OPTIBRIUM.2D6 affinity category>
high

> <OPTIBRIUM.hERG pIC50>
5.21475

> <OPTIBRIUM.2C9 pKi>
5.6623

> <OPTIBRIUM.BBB log([brain]:[blood])>
-0.305748

> <OPTIBRIUM.logS @ pH7.4>
0.933199

$$$$
Compound 115_1_005
haSeeSAR  07122114523D 1   1.00000     0.00000     0
SeeSAR 11.0.2 hazemaj
 54 57  0  0  0  0            999 V2000
   21.7539   -9.6080    6.0325 Cl  0  0  0  0  0  0  0  0  0  0  0  0
   20.9562  -10.0134    4.4938 C   0  0  0  0  0  0  0  0  0  0  0  0
   21.5680   -9.7069    3.2827 C   0  0  0  0  0  0  0  0  0  0  0  0
   19.7137  -10.6398    4.4981 C   0  0  0  0  0  0  0  0  0  0  0  0
   23.1569   -8.9049    3.2863 Cl  0  0  0  0  0  0  0  0  0  0  0  0
   20.9514  -10.0202    2.0756 C   0  0  0  0  0  0  0  0  0  0  0  0
   19.0909  -10.9569    3.2949 C   0  0  0  0  0  0  0  0  0  0  0  0
   19.0372  -10.9786    5.8165 C   0  0  0  0  0  0  0  0  0  0  0  0
   19.7100  -10.6475    2.0887 C   0  0  0  0  0  0  0  0  0  0  0  0
   17.8774  -11.8455    5.5636 N   0  0  0  0  0  0  0  0  0  0  0  0
   16.7451  -11.3232    5.1215 C   0  0  0  0  0  0  0  0  0  0  0  0
   17.9755  -13.2927    5.8019 C   0  0  0  0  0  0  0  0  0  0  0  0
   16.6934  -10.1307    4.8207 O   0  0  0  0  0  0  0  0  0  0  0  0
   15.5079  -12.1957    4.9851 C   0  0  0  0  0  0  0  0  0  0  0  0
   19.0406  -13.8846    4.8932 C   0  0  1  0  0  0  0  0  0  0  0  0
   14.4595  -11.7504    5.9937 C   0  0  0  0  0  0  0  0  0  0  0  0
   20.3314  -13.9808    5.6904 C   0  0  0  0  0  0  0  0  0  0  0  0
   18.6473  -15.2868    4.4587 C   0  0  0  0  0  0  0  0  0  0  0  0
   14.6145  -11.9132    7.3698 C   0  0  0  0  0  0  0  0  0  0  0  0
   13.2983  -11.1552    5.5106 C   0  0  0  0  0  0  0  0  0  0  0  0
   21.4042  -14.7283    4.9148 C   0  0  0  0  0  0  0  0  0  0  0  0
   19.6593  -15.7684    3.4277 C   0  0  0  0  0  0  0  0  0  0  0  0
   13.6091  -11.4798    8.2283 C   0  0  0  0  0  0  0  0  0  0  0  0
   15.7492  -12.5007    7.9256 C   0  0  0  0  0  0  0  0  0  0  0  0
   12.3421  -10.7445    6.3570 N   0  0  0  0  0  0  0  0  0  0  0  0
   22.5841  -14.5925    5.1944 O   0  0  0  0  0  0  0  0  0  0  0  0
   21.0541  -15.5821    3.8578 N   0  0  0  0  0  0  0  0  0  0  0  0
   12.4717  -10.8921    7.6838 C   0  0  0  0  0  0  0  0  0  0  0  0
   13.7381  -11.6295    9.6051 C   0  0  0  0  0  0  0  0  0  0  0  0
   15.8990  -12.6606    9.2990 C   0  0  0  0  0  0  0  0  0  0  0  0
   14.8804  -12.2185   10.1368 C   0  0  0  0  0  0  0  0  0  0  0  0
   21.3958   -9.7970    1.2080 H   0  0  0  0  0  0  0  0  0  0  0  0
   18.1982  -11.4075    3.2976 H   0  0  0  0  0  0  0  0  0  0  0  0
   18.7331  -10.1361    6.2612 H   0  0  0  0  0  0  0  0  0  0  0  0
   19.6854  -11.4541    6.4112 H   0  0  0  0  0  0  0  0  0  0  0  0
   19.2602  -10.8773    1.2257 H   0  0  0  0  0  0  0  0  0  0  0  0
   17.0942  -13.7232    5.6069 H   0  0  0  0  0  0  0  0  0  0  0  0
   18.2229  -13.4573    6.7567 H   0  0  0  0  0  0  0  0  0  0  0  0
   15.7523  -13.1499    5.1576 H   0  0  0  0  0  0  0  0  0  0  0  0
   15.1386  -12.1082    4.0598 H   0  0  0  0  0  0  0  0  0  0  0  0
   19.1733  -13.3006    4.0925 H   0  0  0  0  0  0  0  0  0  0  0  0
   20.1506  -14.4656    6.5461 H   0  0  0  0  0  0  0  0  0  0  0  0
   20.6590  -13.0580    5.8929 H   0  0  0  0  0  0  0  0  0  0  0  0
   17.7330  -15.2715    4.0540 H   0  0  0  0  0  0  0  0  0  0  0  0
   18.6517  -15.8995    5.2490 H   0  0  0  0  0  0  0  0  0  0  0  0
   13.1756  -11.0328    4.5258 H   0  0  0  0  0  0  0  0  0  0  0  0
   19.5170  -15.2584    2.5795 H   0  0  0  0  0  0  0  0  0  0  0  0
   19.5050  -16.7422    3.2609 H   0  0  0  0  0  0  0  0  0  0  0  0
   16.4782  -12.8169    7.3185 H   0  0  0  0  0  0  0  0  0  0  0  0
   21.7773  -16.0811    3.3804 H   0  0  0  0  0  0  0  0  0  0  0  0
   11.7414  -10.5757    8.2894 H   0  0  0  0  0  0  0  0  0  0  0  0
   13.0094  -11.3136   10.2127 H   0  0  0  0  0  0  0  0  0  0  0  0
   16.7223  -13.0848    9.6765 H   0  0  0  0  0  0  0  0  0  0  0  0
   14.9698  -12.3247   11.1271 H   0  0  0  0  0  0  0  0  0  0  0  0
  1  2  1  0  0  0  0
  2  3  2  0  0  0  0
  2  4  1  0  0  0  0
  3  5  1  0  0  0  0
  3  6  1  0  0  0  0
  4  7  2  0  0  0  0
  4  8  1  0  0  0  0
  6  9  2  0  0  0  0
  8 10  1  0  0  0  0
 10 11  1  0  0  0  0
 10 12  1  0  0  0  0
 11 13  2  0  0  0  0
 11 14  1  0  0  0  0
 12 15  1  0  0  0  0
 14 16  1  0  0  0  0
 15 17  1  0  0  0  0
 15 18  1  0  0  0  0
 16 19  1  0  0  0  0
 16 20  2  0  0  0  0
 17 21  1  0  0  0  0
 18 22  1  0  0  0  0
 19 23  1  0  0  0  0
 19 24  2  0  0  0  0
 20 25  1  0  0  0  0
 21 26  2  0  0  0  0
 21 27  1  0  0  0  0
 23 28  1  0  0  0  0
 23 29  2  0  0  0  0
 24 30  1  0  0  0  0
 29 31  1  0  0  0  0
  7  9  1  0  0  0  0
 22 27  1  0  0  0  0
 25 28  2  0  0  0  0
 30 31  2  0  0  0  0
  6 32  1  0  0  0  0
  7 33  1  0  0  0  0
  8 34  1  0  0  0  0
  8 35  1  0  0  0  0
  9 36  1  0  0  0  0
 12 37  1  0  0  0  0
 12 38  1  0  0  0  0
 14 39  1  0  0  0  0
 14 40  1  0  0  0  0
 15 41  1  0  0  0  0
 17 42  1  0  0  0  0
 17 43  1  0  0  0  0
 18 44  1  0  0  0  0
 18 45  1  0  0  0  0
 20 46  1  0  0  0  0
 22 47  1  0  0  0  0
 22 48  1  0  0  0  0
 24 49  1  0  0  0  0
 27 50  1  0  0  0  0
 28 51  1  0  0  0  0
 29 52  1  0  0  0  0
 30 53  1  0  0  0  0
 31 54  1  0  0  0  0
M  END
> <BIOSOLVEIT.HYDE_ESTIMATED_AFFINITY_LOWER_BOUNDARY [nM]>
58969594.597584

> <BIOSOLVEIT.HYDE_ESTIMATED_AFFINITY_UPPER_BOUNDARY [nM]>
5858977879.106229

> <BIOSOLVEIT.HYDE_LIGAND_EFFICIENCY range: ++, +, 0, -, -->
--

> <BIOSOLVEIT.HYDE_LIGAND_LIPOPHILIC_EFFICIENCY range: ++, +, 0, -, -->
--

> <BIOSOLVEIT.INTER_CLASH range: red, yellow, green>
green

> <BIOSOLVEIT.INTRA_CLASH range: red, yellow, green>
yellow

> <BIOSOLVEIT.LOGP>
4.6391

> <BIOSOLVEIT.MOLECULAR WEIGHT>
456.371

> <BIOSOLVEIT.MOLECULE_CHECKSUM>
LTEuMzE3Mjc7MC4wNDI0OTI0

> <BIOSOLVEIT.TORSION_QUALITY range: red, yellow, green, not rotatable>
green

> <BIOSOLVEIT.TPSA>
62.3

> <BIOSOLVEIT.SEESAR_FAVORITE>
favorite

> <smc_score>
0.563

> <QED_score>
0.588

> <distance>
0.577

> <SimilarityPheSA_1>
0.637

> <Smiles>
O=C1CC(CN(Cc2cccc(Cl)c2Cl)C(=O)Cc2cncc3ccccc23)CCN1

> <Similarity_SkelSpheres>
0.752

> <Cluster No>
53.0

> <QueryID>
ALP-POS-c59291d4-4

> <SimilarityPheSA>
0.6367

> <Postera series>
3-aminopyridine-like

> <PDB_code>
Mpro-x10820

> <Approach>
DGM_focussed_RL

> <ID>
20210618_114

> <SimilarityPheSA_2>
0.708

> <OPTIBRIUM.logD>
3.63568

> <OPTIBRIUM.BBB category>
-

> <OPTIBRIUM.logP>
3.63568

> <OPTIBRIUM.P-gp category>
yes

> <OPTIBRIUM.logS>
0.933199

> <OPTIBRIUM.HIA category>
+

> <OPTIBRIUM.PPB90 category>
high

> <OPTIBRIUM.2D6 affinity category>
high

> <OPTIBRIUM.hERG pIC50>
5.21475

> <OPTIBRIUM.2C9 pKi>
5.6623

> <OPTIBRIUM.BBB log([brain]:[blood])>
-0.305748

> <OPTIBRIUM.logS @ pH7.4>
0.933199

$$$$
Compound 115_1_006
haSeeSAR  07122114523D 1   1.00000     0.00000     0
SeeSAR 11.0.2 hazemaj
 54 57  0  0  0  0            999 V2000
   18.5903   -8.7333    2.7975 Cl  0  0  0  0  0  0  0  0  0  0  0  0
   19.8901   -9.4426    3.7853 C   0  0  0  0  0  0  0  0  0  0  0  0
   20.9085   -8.6398    4.2887 C   0  0  0  0  0  0  0  0  0  0  0  0
   19.8914  -10.8072    4.0575 C   0  0  0  0  0  0  0  0  0  0  0  0
   20.8997   -6.8954    3.9351 Cl  0  0  0  0  0  0  0  0  0  0  0  0
   21.9281   -9.1861    5.0617 C   0  0  0  0  0  0  0  0  0  0  0  0
   20.9073  -11.3610    4.8303 C   0  0  0  0  0  0  0  0  0  0  0  0
   18.7829  -11.6926    3.5118 C   0  0  0  0  0  0  0  0  0  0  0  0
   21.9212  -10.5509    5.3300 C   0  0  0  0  0  0  0  0  0  0  0  0
   17.8657  -12.0572    4.6013 N   0  0  0  0  0  0  0  0  0  0  0  0
   16.6821  -11.4731    4.6928 C   0  0  0  0  0  0  0  0  0  0  0  0
   18.2637  -13.0705    5.5891 C   0  0  0  0  0  0  0  0  0  0  0  0
   16.6058  -10.2480    4.7852 O   0  0  0  0  0  0  0  0  0  0  0  0
   15.4166  -12.3149    4.6841 C   0  0  0  0  0  0  0  0  0  0  0  0
   18.0039  -14.4576    5.0245 C   0  0  1  0  0  0  0  0  0  0  0  0
   14.4598  -11.8036    5.7508 C   0  0  0  0  0  0  0  0  0  0  0  0
   19.0811  -14.9047    4.0470 C   0  0  0  0  0  0  0  0  0  0  0  0
   17.9302  -15.5273    6.1036 C   0  0  0  0  0  0  0  0  0  0  0  0
   14.7014  -11.9463    7.1167 C   0  0  0  0  0  0  0  0  0  0  0  0
   13.2952  -11.1665    5.3340 C   0  0  0  0  0  0  0  0  0  0  0  0
   20.3940  -15.2002    4.7553 C   0  0  0  0  0  0  0  0  0  0  0  0
   19.1922  -15.4723    6.9505 C   0  0  0  0  0  0  0  0  0  0  0  0
   13.7767  -11.4516    8.0311 C   0  0  0  0  0  0  0  0  0  0  0  0
   15.8450  -12.5730    7.6078 C   0  0  0  0  0  0  0  0  0  0  0  0
   12.4178  -10.6969    6.2333 N   0  0  0  0  0  0  0  0  0  0  0  0
   21.4470  -15.1811    4.1437 O   0  0  0  0  0  0  0  0  0  0  0  0
   20.4163  -15.4781    6.1297 N   0  0  0  0  0  0  0  0  0  0  0  0
   12.6313  -10.8243    7.5514 C   0  0  0  0  0  0  0  0  0  0  0  0
   13.9929  -11.5801    9.3990 C   0  0  0  0  0  0  0  0  0  0  0  0
   16.0812  -12.7128    8.9712 C   0  0  0  0  0  0  0  0  0  0  0  0
   15.1423  -12.2091    9.8656 C   0  0  0  0  0  0  0  0  0  0  0  0
   22.6579   -8.6040    5.4202 H   0  0  0  0  0  0  0  0  0  0  0  0
   20.9084  -12.3416    5.0264 H   0  0  0  0  0  0  0  0  0  0  0  0
   19.1812  -12.5221    3.1199 H   0  0  0  0  0  0  0  0  0  0  0  0
   18.2792  -11.1980    2.8037 H   0  0  0  0  0  0  0  0  0  0  0  0
   22.6496  -10.9518    5.8856 H   0  0  0  0  0  0  0  0  0  0  0  0
   17.7317  -12.9465    6.4267 H   0  0  0  0  0  0  0  0  0  0  0  0
   19.2373  -12.9712    5.7947 H   0  0  0  0  0  0  0  0  0  0  0  0
   15.6492  -13.2687    4.8745 H   0  0  0  0  0  0  0  0  0  0  0  0
   14.9800  -12.2512    3.7866 H   0  0  0  0  0  0  0  0  0  0  0  0
   17.1290  -14.4402    4.5404 H   0  0  0  0  0  0  0  0  0  0  0  0
   19.2309  -14.1791    3.3754 H   0  0  0  0  0  0  0  0  0  0  0  0
   18.7713  -15.7327    3.5795 H   0  0  0  0  0  0  0  0  0  0  0  0
   17.8532  -16.4283    5.6765 H   0  0  0  0  0  0  0  0  0  0  0  0
   17.1315  -15.3636    6.6826 H   0  0  0  0  0  0  0  0  0  0  0  0
   13.1110  -11.0579    4.3570 H   0  0  0  0  0  0  0  0  0  0  0  0
   19.2076  -16.2674    7.5569 H   0  0  0  0  0  0  0  0  0  0  0  0
   19.1759  -14.6358    7.4982 H   0  0  0  0  0  0  0  0  0  0  0  0
   16.5162  -12.9333    6.9601 H   0  0  0  0  0  0  0  0  0  0  0  0
   11.9586  -10.4637    8.1975 H   0  0  0  0  0  0  0  0  0  0  0  0
   13.3219  -11.2200   10.0471 H   0  0  0  0  0  0  0  0  0  0  0  0
   16.9091  -13.1658    9.3018 H   0  0  0  0  0  0  0  0  0  0  0  0
   15.2945  -12.3000   10.8497 H   0  0  0  0  0  0  0  0  0  0  0  0
   21.4634  -14.8973    3.1849 H   0  0  0  0  0  0  0  0  0  0  0  0
  1  2  1  0  0  0  0
  2  3  2  0  0  0  0
  2  4  1  0  0  0  0
  3  5  1  0  0  0  0
  3  6  1  0  0  0  0
  4  7  2  0  0  0  0
  4  8  1  0  0  0  0
  6  9  2  0  0  0  0
  8 10  1  0  0  0  0
 10 11  1  0  0  0  0
 10 12  1  0  0  0  0
 11 13  2  0  0  0  0
 11 14  1  0  0  0  0
 12 15  1  0  0  0  0
 14 16  1  0  0  0  0
 15 17  1  0  0  0  0
 15 18  1  0  0  0  0
 16 19  1  0  0  0  0
 16 20  2  0  0  0  0
 17 21  1  0  0  0  0
 18 22  1  0  0  0  0
 19 23  1  0  0  0  0
 19 24  2  0  0  0  0
 20 25  1  0  0  0  0
 21 26  1  0  0  0  0
 21 27  2  0  0  0  0
 23 28  1  0  0  0  0
 23 29  2  0  0  0  0
 24 30  1  0  0  0  0
 29 31  1  0  0  0  0
  7  9  1  0  0  0  0
 22 27  1  0  0  0  0
 25 28  2  0  0  0  0
 30 31  2  0  0  0  0
  6 32  1  0  0  0  0
  7 33  1  0  0  0  0
  8 34  1  0  0  0  0
  8 35  1  0  0  0  0
  9 36  1  0  0  0  0
 12 37  1  0  0  0  0
 12 38  1  0  0  0  0
 14 39  1  0  0  0  0
 14 40  1  0  0  0  0
 15 41  1  0  0  0  0
 17 42  1  0  0  0  0
 17 43  1  0  0  0  0
 18 44  1  0  0  0  0
 18 45  1  0  0  0  0
 20 46  1  0  0  0  0
 22 47  1  0  0  0  0
 22 48  1  0  0  0  0
 24 49  1  0  0  0  0
 26 54  1  0  0  0  0
 28 50  1  0  0  0  0
 29 51  1  0  0  0  0
 30 52  1  0  0  0  0
 31 53  1  0  0  0  0
M  END
> <BIOSOLVEIT.HYDE_ESTIMATED_AFFINITY_LOWER_BOUNDARY [nM]>
36853680.212859

> <BIOSOLVEIT.HYDE_ESTIMATED_AFFINITY_UPPER_BOUNDARY [nM]>
3661631025.349479

> <BIOSOLVEIT.HYDE_LIGAND_EFFICIENCY range: ++, +, 0, -, -->
--

> <BIOSOLVEIT.HYDE_LIGAND_LIPOPHILIC_EFFICIENCY range: ++, +, 0, -, -->
--

> <BIOSOLVEIT.INTER_CLASH range: red, yellow, green>
green

> <BIOSOLVEIT.INTRA_CLASH range: red, yellow, green>
green

> <BIOSOLVEIT.LOGP>
5.4794

> <BIOSOLVEIT.MOLECULAR WEIGHT>
456.371

> <BIOSOLVEIT.MOLECULE_CHECKSUM>
LTIuNDgyNTQ7MC4wODAwODE5

> <BIOSOLVEIT.TORSION_QUALITY range: red, yellow, green, not rotatable>
yellow

> <BIOSOLVEIT.TPSA>
65.79

> <BIOSOLVEIT.SEESAR_FAVORITE>
favorite

> <smc_score>
0.563

> <QED_score>
0.588

> <distance>
0.577

> <SimilarityPheSA_1>
0.637

> <Smiles>
O=C1CC(CN(Cc2cccc(Cl)c2Cl)C(=O)Cc2cncc3ccccc23)CCN1

> <Similarity_SkelSpheres>
0.752

> <Cluster No>
53.0

> <QueryID>
ALP-POS-c59291d4-4

> <SimilarityPheSA>
0.6367

> <Postera series>
3-aminopyridine-like

> <PDB_code>
Mpro-x10820

> <Approach>
DGM_focussed_RL

> <ID>
20210618_114

> <SimilarityPheSA_2>
0.708

> <OPTIBRIUM.logD>
3.63568

> <OPTIBRIUM.BBB category>
-

> <OPTIBRIUM.logP>
3.63568

> <OPTIBRIUM.P-gp category>
yes

> <OPTIBRIUM.logS>
0.933199

> <OPTIBRIUM.HIA category>
+

> <OPTIBRIUM.PPB90 category>
high

> <OPTIBRIUM.2D6 affinity category>
high

> <OPTIBRIUM.hERG pIC50>
5.21475

> <OPTIBRIUM.2C9 pKi>
5.6623

> <OPTIBRIUM.BBB log([brain]:[blood])>
-0.305748

> <OPTIBRIUM.logS @ pH7.4>
0.933199

$$$$
Compound 115_1_007
haSeeSAR  07122114523D 1   1.00000     0.00000     0
SeeSAR 11.0.2 hazemaj
 54 57  0  0  0  0            999 V2000
   19.6444   -9.0888    2.0329 Cl  0  0  0  0  0  0  0  0  0  0  0  0
   20.0572   -9.2217    3.7593 C   0  0  0  0  0  0  0  0  0  0  0  0
   20.7469   -8.1966    4.3983 C   0  0  0  0  0  0  0  0  0  0  0  0
   19.6900  -10.3558    4.4772 C   0  0  0  0  0  0  0  0  0  0  0  0
   21.2134   -6.7497    3.4724 Cl  0  0  0  0  0  0  0  0  0  0  0  0
   21.0735   -8.2923    5.7472 C   0  0  0  0  0  0  0  0  0  0  0  0
   20.0124  -10.4589    5.8267 C   0  0  0  0  0  0  0  0  0  0  0  0
   18.9362  -11.4814    3.7876 C   0  0  0  0  0  0  0  0  0  0  0  0
   20.7017   -9.4289    6.4577 C   0  0  0  0  0  0  0  0  0  0  0  0
   17.9020  -12.0044    4.6919 N   0  0  0  0  0  0  0  0  0  0  0  0
   16.7028  -11.4461    4.7186 C   0  0  0  0  0  0  0  0  0  0  0  0
   18.2001  -13.1476    5.5666 C   0  0  0  0  0  0  0  0  0  0  0  0
   16.5951  -10.2202    4.7459 O   0  0  0  0  0  0  0  0  0  0  0  0
   15.4581  -12.3186    4.7156 C   0  0  0  0  0  0  0  0  0  0  0  0
   19.0457  -14.1582    4.8090 C   0  0  1  0  0  0  0  0  0  0  0  0
   14.4799  -11.8101    5.7641 C   0  0  0  0  0  0  0  0  0  0  0  0
   20.4900  -13.9789    5.2481 C   0  0  0  0  0  0  0  0  0  0  0  0
   18.6178  -15.5743    5.1567 C   0  0  0  0  0  0  0  0  0  0  0  0
   14.6993  -11.9463    7.1344 C   0  0  0  0  0  0  0  0  0  0  0  0
   13.3180  -11.1828    5.3253 C   0  0  0  0  0  0  0  0  0  0  0  0
   21.3804  -15.0689    4.6738 C   0  0  0  0  0  0  0  0  0  0  0  0
   19.3789  -16.5377    4.2557 C   0  0  0  0  0  0  0  0  0  0  0  0
   13.7559  -11.4549    8.0313 C   0  0  0  0  0  0  0  0  0  0  0  0
   15.8388  -12.5631    7.6471 C   0  0  0  0  0  0  0  0  0  0  0  0
   12.4222  -10.7163    6.2080 N   0  0  0  0  0  0  0  0  0  0  0  0
   22.5866  -14.9070    4.5868 O   0  0  0  0  0  0  0  0  0  0  0  0
   20.8270  -16.2785    4.2269 N   0  0  0  0  0  0  0  0  0  0  0  0
   12.6144  -10.8375    7.5300 C   0  0  0  0  0  0  0  0  0  0  0  0
   13.9498  -11.5769    9.4030 C   0  0  0  0  0  0  0  0  0  0  0  0
   16.0529  -12.6964    9.0147 C   0  0  0  0  0  0  0  0  0  0  0  0
   15.0954  -12.1962    9.8913 C   0  0  0  0  0  0  0  0  0  0  0  0
   21.5700   -7.5524    6.2010 H   0  0  0  0  0  0  0  0  0  0  0  0
   19.7485  -11.2737    6.3430 H   0  0  0  0  0  0  0  0  0  0  0  0
   19.5742  -12.2144    3.5517 H   0  0  0  0  0  0  0  0  0  0  0  0
   18.5058  -11.1332    2.9549 H   0  0  0  0  0  0  0  0  0  0  0  0
   20.9313   -9.5058    7.4279 H   0  0  0  0  0  0  0  0  0  0  0  0
   17.3450  -13.5782    5.8554 H   0  0  0  0  0  0  0  0  0  0  0  0
   18.7016  -12.8298    6.3713 H   0  0  0  0  0  0  0  0  0  0  0  0
   15.7121  -13.2624    4.9265 H   0  0  0  0  0  0  0  0  0  0  0  0
   15.0281  -12.2827    3.8134 H   0  0  0  0  0  0  0  0  0  0  0  0
   18.9640  -14.0059    3.8240 H   0  0  0  0  0  0  0  0  0  0  0  0
   20.5339  -14.0146    6.2466 H   0  0  0  0  0  0  0  0  0  0  0  0
   20.8188  -13.0891    4.9317 H   0  0  0  0  0  0  0  0  0  0  0  0
   17.6344  -15.6769    5.0074 H   0  0  0  0  0  0  0  0  0  0  0  0
   18.8313  -15.7667    6.1145 H   0  0  0  0  0  0  0  0  0  0  0  0
   13.1496  -11.0791    4.3451 H   0  0  0  0  0  0  0  0  0  0  0  0
   19.0218  -16.4529    3.3254 H   0  0  0  0  0  0  0  0  0  0  0  0
   19.2288  -17.4692    4.5868 H   0  0  0  0  0  0  0  0  0  0  0  0
   16.5234  -12.9211    7.0121 H   0  0  0  0  0  0  0  0  0  0  0  0
   21.4377  -16.9886    3.8768 H   0  0  0  0  0  0  0  0  0  0  0  0
   11.9283  -10.4794    8.1633 H   0  0  0  0  0  0  0  0  0  0  0  0
   13.2654  -11.2194   10.0385 H   0  0  0  0  0  0  0  0  0  0  0  0
   16.8783  -13.1424    9.3609 H   0  0  0  0  0  0  0  0  0  0  0  0
   15.2318  -12.2824   10.8782 H   0  0  0  0  0  0  0  0  0  0  0  0
  1  2  1  0  0  0  0
  2  3  2  0  0  0  0
  2  4  1  0  0  0  0
  3  5  1  0  0  0  0
  3  6  1  0  0  0  0
  4  7  2  0  0  0  0
  4  8  1  0  0  0  0
  6  9  2  0  0  0  0
  8 10  1  0  0  0  0
 10 11  1  0  0  0  0
 10 12  1  0  0  0  0
 11 13  2  0  0  0  0
 11 14  1  0  0  0  0
 12 15  1  0  0  0  0
 14 16  1  0  0  0  0
 15 17  1  0  0  0  0
 15 18  1  0  0  0  0
 16 19  1  0  0  0  0
 16 20  2  0  0  0  0
 17 21  1  0  0  0  0
 18 22  1  0  0  0  0
 19 23  1  0  0  0  0
 19 24  2  0  0  0  0
 20 25  1  0  0  0  0
 21 26  2  0  0  0  0
 21 27  1  0  0  0  0
 23 28  1  0  0  0  0
 23 29  2  0  0  0  0
 24 30  1  0  0  0  0
 29 31  1  0  0  0  0
  7  9  1  0  0  0  0
 22 27  1  0  0  0  0
 25 28  2  0  0  0  0
 30 31  2  0  0  0  0
  6 32  1  0  0  0  0
  7 33  1  0  0  0  0
  8 34  1  0  0  0  0
  8 35  1  0  0  0  0
  9 36  1  0  0  0  0
 12 37  1  0  0  0  0
 12 38  1  0  0  0  0
 14 39  1  0  0  0  0
 14 40  1  0  0  0  0
 15 41  1  0  0  0  0
 17 42  1  0  0  0  0
 17 43  1  0  0  0  0
 18 44  1  0  0  0  0
 18 45  1  0  0  0  0
 20 46  1  0  0  0  0
 22 47  1  0  0  0  0
 22 48  1  0  0  0  0
 24 49  1  0  0  0  0
 27 50  1  0  0  0  0
 28 51  1  0  0  0  0
 29 52  1  0  0  0  0
 30 53  1  0  0  0  0
 31 54  1  0  0  0  0
M  END
> <BIOSOLVEIT.HYDE_ESTIMATED_AFFINITY_LOWER_BOUNDARY [nM]>
859625164.218343

> <BIOSOLVEIT.HYDE_ESTIMATED_AFFINITY_UPPER_BOUNDARY [nM]>
85408842571.298721

> <BIOSOLVEIT.HYDE_LIGAND_EFFICIENCY range: ++, +, 0, -, -->
--

> <BIOSOLVEIT.HYDE_LIGAND_LIPOPHILIC_EFFICIENCY range: ++, +, 0, -, -->
--

> <BIOSOLVEIT.INTER_CLASH range: red, yellow, green>
green

> <BIOSOLVEIT.INTRA_CLASH range: red, yellow, green>
green

> <BIOSOLVEIT.LOGP>
4.6391

> <BIOSOLVEIT.MOLECULAR WEIGHT>
456.371

> <BIOSOLVEIT.MOLECULE_CHECKSUM>
NS4zMjUwNDsw

> <BIOSOLVEIT.TORSION_QUALITY range: red, yellow, green, not rotatable>
red

> <BIOSOLVEIT.TPSA>
62.3

> <BIOSOLVEIT.SEESAR_FAVORITE>
favorite

> <smc_score>
0.563

> <QED_score>
0.588

> <distance>
0.577

> <SimilarityPheSA_1>
0.637

> <Smiles>
O=C1CC(CN(Cc2cccc(Cl)c2Cl)C(=O)Cc2cncc3ccccc23)CCN1

> <Similarity_SkelSpheres>
0.752

> <Cluster No>
53.0

> <QueryID>
ALP-POS-c59291d4-4

> <SimilarityPheSA>
0.6367

> <Postera series>
3-aminopyridine-like

> <PDB_code>
Mpro-x10820

> <Approach>
DGM_focussed_RL

> <ID>
20210618_114

> <SimilarityPheSA_2>
0.708

> <OPTIBRIUM.logD>
3.63568

> <OPTIBRIUM.BBB category>
-

> <OPTIBRIUM.logP>
3.63568

> <OPTIBRIUM.P-gp category>
yes

> <OPTIBRIUM.logS>
0.933199

> <OPTIBRIUM.HIA category>
+

> <OPTIBRIUM.PPB90 category>
high

> <OPTIBRIUM.2D6 affinity category>
high

> <OPTIBRIUM.hERG pIC50>
5.21475

> <OPTIBRIUM.2C9 pKi>
5.6623

> <OPTIBRIUM.BBB log([brain]:[blood])>
-0.305748

> <OPTIBRIUM.logS @ pH7.4>
0.933199

$$$$
Compound 115_1_008
haSeeSAR  07122114523D 1   1.00000     0.00000     0
SeeSAR 11.0.2 hazemaj
 54 57  0  0  0  0            999 V2000
   18.5888   -8.8913    2.8327 Cl  0  0  0  0  0  0  0  0  0  0  0  0
   19.9544   -9.4050    3.8525 C   0  0  0  0  0  0  0  0  0  0  0  0
   20.9277   -8.4890    4.2380 C   0  0  0  0  0  0  0  0  0  0  0  0
   20.0528  -10.7293    4.2680 C   0  0  0  0  0  0  0  0  0  0  0  0
   20.7946   -6.7972    3.7014 Cl  0  0  0  0  0  0  0  0  0  0  0  0
   21.9982   -8.8821    5.0348 C   0  0  0  0  0  0  0  0  0  0  0  0
   21.1201  -11.1302    5.0656 C   0  0  0  0  0  0  0  0  0  0  0  0
   18.9943  -11.7378    3.8518 C   0  0  0  0  0  0  0  0  0  0  0  0
   22.0883  -10.2076    5.4469 C   0  0  0  0  0  0  0  0  0  0  0  0
   18.0278  -11.9134    4.9454 N   0  0  0  0  0  0  0  0  0  0  0  0
   16.8103  -11.4064    4.8400 C   0  0  0  0  0  0  0  0  0  0  0  0
   18.4140  -12.6522    6.1561 C   0  0  0  0  0  0  0  0  0  0  0  0
   16.6574  -10.1896    4.7329 O   0  0  0  0  0  0  0  0  0  0  0  0
   15.6004  -12.3264    4.8513 C   0  0  0  0  0  0  0  0  0  0  0  0
   18.6472  -14.1126    5.8057 C   0  0  1  0  0  0  0  0  0  0  0  0
   14.5728  -11.8009    5.8425 C   0  0  0  0  0  0  0  0  0  0  0  0
   17.8723  -14.4270    4.5305 C   0  0  0  0  0  0  0  0  0  0  0  0
   20.1437  -14.4032    5.7580 C   0  0  0  0  0  0  0  0  0  0  0  0
   14.7129  -11.9374    7.2231 C   0  0  0  0  0  0  0  0  0  0  0  0
   13.4472  -11.1568    5.3384 C   0  0  0  0  0  0  0  0  0  0  0  0
   18.3347  -15.7334    3.9088 C   0  0  0  0  0  0  0  0  0  0  0  0
   20.6617  -15.0540    4.4785 C   0  0  0  0  0  0  0  0  0  0  0  0
   13.7282  -11.4297    8.0649 C   0  0  0  0  0  0  0  0  0  0  0  0
   15.8122  -12.5704    7.7997 C   0  0  0  0  0  0  0  0  0  0  0  0
   12.5106  -10.6747    6.1688 N   0  0  0  0  0  0  0  0  0  0  0  0
   17.5431  -16.5297    3.4306 O   0  0  0  0  0  0  0  0  0  0  0  0
   19.7058  -16.0136    3.8914 N   0  0  0  0  0  0  0  0  0  0  0  0
   12.6263  -10.7959    7.4995 C   0  0  0  0  0  0  0  0  0  0  0  0
   13.8430  -11.5517    9.4456 C   0  0  0  0  0  0  0  0  0  0  0  0
   15.9472  -12.7038    9.1774 C   0  0  0  0  0  0  0  0  0  0  0  0
   14.9499  -12.1873    9.9983 C   0  0  0  0  0  0  0  0  0  0  0  0
   22.6950   -8.2191    5.3083 H   0  0  0  0  0  0  0  0  0  0  0  0
   21.1910  -12.0819    5.3648 H   0  0  0  0  0  0  0  0  0  0  0  0
   19.4306  -12.6144    3.6486 H   0  0  0  0  0  0  0  0  0  0  0  0
   18.5191  -11.4053    3.0372 H   0  0  0  0  0  0  0  0  0  0  0  0
   22.8537  -10.4987    6.0206 H   0  0  0  0  0  0  0  0  0  0  0  0
   17.6830  -12.5849    6.8351 H   0  0  0  0  0  0  0  0  0  0  0  0
   19.2544  -12.2612    6.5314 H   0  0  0  0  0  0  0  0  0  0  0  0
   15.8838  -13.2466    5.1211 H   0  0  0  0  0  0  0  0  0  0  0  0
   15.1963  -12.3568    3.9369 H   0  0  0  0  0  0  0  0  0  0  0  0
   18.2556  -14.6658    6.5410 H   0  0  0  0  0  0  0  0  0  0  0  0
   18.0128  -13.6862    3.8736 H   0  0  0  0  0  0  0  0  0  0  0  0
   16.8993  -14.4976    4.7501 H   0  0  0  0  0  0  0  0  0  0  0  0
   20.3610  -15.0129    6.5203 H   0  0  0  0  0  0  0  0  0  0  0  0
   20.6271  -13.5358    5.8767 H   0  0  0  0  0  0  0  0  0  0  0  0
   13.3356  -11.0527    4.3501 H   0  0  0  0  0  0  0  0  0  0  0  0
   21.5109  -15.5384    4.6886 H   0  0  0  0  0  0  0  0  0  0  0  0
   20.8449  -14.3358    3.8073 H   0  0  0  0  0  0  0  0  0  0  0  0
   16.5258  -12.9400    7.2047 H   0  0  0  0  0  0  0  0  0  0  0  0
   20.0377  -16.8632    3.4815 H   0  0  0  0  0  0  0  0  0  0  0  0
   11.9113  -10.4261    8.0929 H   0  0  0  0  0  0  0  0  0  0  0  0
   13.1297  -11.1823   10.0412 H   0  0  0  0  0  0  0  0  0  0  0  0
   16.7448  -13.1617    9.5700 H   0  0  0  0  0  0  0  0  0  0  0  0
   15.0292  -12.2735   10.9914 H   0  0  0  0  0  0  0  0  0  0  0  0
  1  2  1  0  0  0  0
  2  3  2  0  0  0  0
  2  4  1  0  0  0  0
  3  5  1  0  0  0  0
  3  6  1  0  0  0  0
  4  7  2  0  0  0  0
  4  8  1  0  0  0  0
  6  9  2  0  0  0  0
  8 10  1  0  0  0  0
 10 11  1  0  0  0  0
 10 12  1  0  0  0  0
 11 13  2  0  0  0  0
 11 14  1  0  0  0  0
 12 15  1  0  0  0  0
 14 16  1  0  0  0  0
 15 17  1  0  0  0  0
 15 18  1  0  0  0  0
 16 19  1  0  0  0  0
 16 20  2  0  0  0  0
 17 21  1  0  0  0  0
 18 22  1  0  0  0  0
 19 23  1  0  0  0  0
 19 24  2  0  0  0  0
 20 25  1  0  0  0  0
 21 26  2  0  0  0  0
 21 27  1  0  0  0  0
 23 28  1  0  0  0  0
 23 29  2  0  0  0  0
 24 30  1  0  0  0  0
 29 31  1  0  0  0  0
  7  9  1  0  0  0  0
 22 27  1  0  0  0  0
 25 28  2  0  0  0  0
 30 31  2  0  0  0  0
  6 32  1  0  0  0  0
  7 33  1  0  0  0  0
  8 34  1  0  0  0  0
  8 35  1  0  0  0  0
  9 36  1  0  0  0  0
 12 37  1  0  0  0  0
 12 38  1  0  0  0  0
 14 39  1  0  0  0  0
 14 40  1  0  0  0  0
 15 41  1  0  0  0  0
 17 42  1  0  0  0  0
 17 43  1  0  0  0  0
 18 44  1  0  0  0  0
 18 45  1  0  0  0  0
 20 46  1  0  0  0  0
 22 47  1  0  0  0  0
 22 48  1  0  0  0  0
 24 49  1  0  0  0  0
 27 50  1  0  0  0  0
 28 51  1  0  0  0  0
 29 52  1  0  0  0  0
 30 53  1  0  0  0  0
 31 54  1  0  0  0  0
M  END
> <BIOSOLVEIT.HYDE_ESTIMATED_AFFINITY_LOWER_BOUNDARY [nM]>
301081799.836057

> <BIOSOLVEIT.HYDE_ESTIMATED_AFFINITY_UPPER_BOUNDARY [nM]>
29914256950.195023

> <BIOSOLVEIT.HYDE_LIGAND_EFFICIENCY range: ++, +, 0, -, -->
--

> <BIOSOLVEIT.HYDE_LIGAND_LIPOPHILIC_EFFICIENCY range: ++, +, 0, -, -->
--

> <BIOSOLVEIT.INTER_CLASH range: red, yellow, green>
green

> <BIOSOLVEIT.INTRA_CLASH range: red, yellow, green>
yellow

> <BIOSOLVEIT.LOGP>
4.6391

> <BIOSOLVEIT.MOLECULAR WEIGHT>
456.371

> <BIOSOLVEIT.MOLECULE_CHECKSUM>
Mi43MjQzMzsw

> <BIOSOLVEIT.TORSION_QUALITY range: red, yellow, green, not rotatable>
yellow

> <BIOSOLVEIT.TPSA>
62.3

> <BIOSOLVEIT.SEESAR_FAVORITE>
favorite

> <smc_score>
0.563

> <QED_score>
0.588

> <distance>
0.577

> <SimilarityPheSA_1>
0.637

> <Smiles>
O=C1CC(CN(Cc2cccc(Cl)c2Cl)C(=O)Cc2cncc3ccccc23)CCN1

> <Similarity_SkelSpheres>
0.752

> <Cluster No>
53.0

> <QueryID>
ALP-POS-c59291d4-4

> <SimilarityPheSA>
0.6367

> <Postera series>
3-aminopyridine-like

> <PDB_code>
Mpro-x10820

> <Approach>
DGM_focussed_RL

> <ID>
20210618_114

> <SimilarityPheSA_2>
0.708

> <OPTIBRIUM.logD>
3.63568

> <OPTIBRIUM.BBB category>
-

> <OPTIBRIUM.logP>
3.63568

> <OPTIBRIUM.P-gp category>
yes

> <OPTIBRIUM.logS>
0.933199

> <OPTIBRIUM.HIA category>
+

> <OPTIBRIUM.PPB90 category>
high

> <OPTIBRIUM.2D6 affinity category>
high

> <OPTIBRIUM.hERG pIC50>
5.21475

> <OPTIBRIUM.2C9 pKi>
5.6623

> <OPTIBRIUM.BBB log([brain]:[blood])>
-0.305748

> <OPTIBRIUM.logS @ pH7.4>
0.933199

$$$$
Compound 205_1_1
haSeeSAR  07122114523D 1   1.00000     0.00000     0
SeeSAR 11.0.2 hazemaj
 45 47  0  0  0  0            999 V2000
   24.4173  -10.3337    5.4455 Cl  0  0  0  0  0  0  0  0  0  0  0  0
   22.6892  -10.0707    5.1083 C   0  0  0  0  0  0  0  0  0  0  0  0
   21.7988   -9.9245    6.1668 C   0  0  0  0  0  0  0  0  0  0  0  0
   22.2483  -10.0151    3.7901 C   0  0  0  0  0  0  0  0  0  0  0  0
   22.2474   -9.9817    7.4394 O   0  0  0  0  0  0  0  0  0  0  0  0
   20.4502   -9.7190    5.8962 C   0  0  0  0  0  0  0  0  0  0  0  0
   20.8950   -9.8093    3.5426 C   0  0  0  0  0  0  0  0  0  0  0  0
   22.7644   -8.8155    8.0631 C   0  0  0  0  0  0  0  0  0  0  0  0
   19.9871   -9.6597    4.5860 C   0  0  0  0  0  0  0  0  0  0  0  0
   19.4615   -9.5553    7.0399 C   0  0  0  0  0  0  0  0  0  0  0  0
   20.3206   -9.7360    1.8594 Cl  0  0  0  0  0  0  0  0  0  0  0  0
   18.6189  -10.7534    7.1334 N   0  0  0  0  0  0  0  0  0  0  0  0
   17.4187  -10.9301    6.4529 C   0  0  0  0  0  0  0  0  0  0  0  0
   18.8771  -11.9383    7.9685 C   0  0  0  0  0  0  0  0  0  0  0  0
   16.9219  -10.0758    5.7331 O   0  0  0  0  0  0  0  0  0  0  0  0
   16.8845  -12.2007    6.7065 N   0  0  0  0  0  0  0  0  0  0  0  0
   17.8276  -12.9471    7.5479 C   0  0  0  0  0  0  0  0  0  0  0  0
   15.6034  -12.7039    6.1850 C   0  0  0  0  0  0  0  0  0  0  0  0
   14.4631  -11.8794    6.7602 C   0  0  0  0  0  0  0  0  0  0  0  0
   13.7389  -10.9846    5.9792 C   0  0  0  0  0  0  0  0  0  0  0  0
   14.1276  -12.0156    8.1022 C   0  0  0  0  0  0  0  0  0  0  0  0
   14.0623  -10.8491    4.6750 O   0  0  0  0  0  0  0  0  0  0  0  0
   12.7369  -10.2692    6.5112 N   0  0  0  0  0  0  0  0  0  0  0  0
   13.0864  -11.2658    8.6382 C   0  0  0  0  0  0  0  0  0  0  0  0
   13.9383  -11.9559    3.7941 C   0  0  0  0  0  0  0  0  0  0  0  0
   12.4007  -10.3893    7.8044 C   0  0  0  0  0  0  0  0  0  0  0  0
   22.8933  -10.1212    3.0334 H   0  0  0  0  0  0  0  0  0  0  0  0
   23.0492   -9.0348    8.9962 H   0  0  0  0  0  0  0  0  0  0  0  0
   23.5511   -8.4810    7.5444 H   0  0  0  0  0  0  0  0  0  0  0  0
   22.0568   -8.1092    8.0878 H   0  0  0  0  0  0  0  0  0  0  0  0
   19.0164   -9.5119    4.3968 H   0  0  0  0  0  0  0  0  0  0  0  0
   18.8859   -8.7553    6.8710 H   0  0  0  0  0  0  0  0  0  0  0  0
   19.9612   -9.4315    7.8972 H   0  0  0  0  0  0  0  0  0  0  0  0
   18.7805  -11.7134    8.9380 H   0  0  0  0  0  0  0  0  0  0  0  0
   19.7959  -12.2949    7.7989 H   0  0  0  0  0  0  0  0  0  0  0  0
   17.3609  -13.3212    8.3493 H   0  0  0  0  0  0  0  0  0  0  0  0
   18.2463  -13.6917    7.0282 H   0  0  0  0  0  0  0  0  0  0  0  0
   15.4890  -13.6615    6.4495 H   0  0  0  0  0  0  0  0  0  0  0  0
   15.5978  -12.6306    5.1877 H   0  0  0  0  0  0  0  0  0  0  0  0
   14.6350  -12.6528    8.6823 H   0  0  0  0  0  0  0  0  0  0  0  0
   12.8363  -11.3549    9.6023 H   0  0  0  0  0  0  0  0  0  0  0  0
   14.2175  -11.6821    2.8736 H   0  0  0  0  0  0  0  0  0  0  0  0
   14.5234  -12.7019    4.1117 H   0  0  0  0  0  0  0  0  0  0  0  0
   12.9867  -12.2628    3.7764 H   0  0  0  0  0  0  0  0  0  0  0  0
   11.6488   -9.8425    8.1728 H   0  0  0  0  0  0  0  0  0  0  0  0
  1  2  1  0  0  0  0
  2  3  2  0  0  0  0
  2  4  1  0  0  0  0
  3  5  1  0  0  0  0
  3  6  1  0  0  0  0
  4  7  2  0  0  0  0
  5  8  1  0  0  0  0
  6  9  2  0  0  0  0
  6 10  1  0  0  0  0
  7 11  1  0  0  0  0
 10 12  1  0  0  0  0
 12 13  1  0  0  0  0
 12 14  1  0  0  0  0
 13 15  2  0  0  0  0
 13 16  1  0  0  0  0
 14 17  1  0  0  0  0
 16 18  1  0  0  0  0
 18 19  1  0  0  0  0
 19 20  2  0  0  0  0
 19 21  1  0  0  0  0
 20 22  1  0  0  0  0
 20 23  1  0  0  0  0
 21 24  2  0  0  0  0
 22 25  1  0  0  0  0
 23 26  2  0  0  0  0
  7  9  1  0  0  0  0
 16 17  1  0  0  0  0
 24 26  1  0  0  0  0
  4 27  1  0  0  0  0
  8 28  1  0  0  0  0
  8 29  1  0  0  0  0
  8 30  1  0  0  0  0
  9 31  1  0  0  0  0
 10 32  1  0  0  0  0
 10 33  1  0  0  0  0
 14 34  1  0  0  0  0
 14 35  1  0  0  0  0
 17 36  1  0  0  0  0
 17 37  1  0  0  0  0
 18 38  1  0  0  0  0
 18 39  1  0  0  0  0
 21 40  1  0  0  0  0
 24 41  1  0  0  0  0
 25 42  1  0  0  0  0
 25 43  1  0  0  0  0
 25 44  1  0  0  0  0
 26 45  1  0  0  0  0
M  END
> <BIOSOLVEIT.HYDE_ESTIMATED_AFFINITY_LOWER_BOUNDARY [nM]>
17876598.925880

> <BIOSOLVEIT.HYDE_ESTIMATED_AFFINITY_UPPER_BOUNDARY [nM]>
1776145798.103820

> <BIOSOLVEIT.HYDE_LIGAND_EFFICIENCY range: ++, +, 0, -, -->
--

> <BIOSOLVEIT.HYDE_LIGAND_LIPOPHILIC_EFFICIENCY range: ++, +, 0, -, -->
--

> <BIOSOLVEIT.INTER_CLASH range: red, yellow, green>
yellow

> <BIOSOLVEIT.INTRA_CLASH range: red, yellow, green>
yellow

> <BIOSOLVEIT.LOGP>
3.8434

> <BIOSOLVEIT.MOLECULAR WEIGHT>
396.272

> <BIOSOLVEIT.MOLECULE_CHECKSUM>
LTQuMjc1OTc7MC4xNjQ0NjE=

> <BIOSOLVEIT.TORSION_QUALITY range: red, yellow, green, not rotatable>
yellow

> <BIOSOLVEIT.TPSA>
54.9

> <BIOSOLVEIT.SEESAR_FAVORITE>
favorite

> <smc_score>
0.688

> <QED_score>
0.745

> <distance>
0.667

> <SimilarityPheSA_1>
0.694

> <Smiles>
COc1ncccc1CN1CCN(Cc2cc(Cl)cc(Cl)c2OC)C1=O

> <Similarity_SkelSpheres>
0.641

> <Cluster No>
101.0

> <QueryID>
JAN-GHE-5a013bed-2

> <SimilarityPheSA>
0.6942

> <Postera series>
3-aminopyridine-like

> <PDB_code>
Mpro-x10466

> <Approach>
DGM_focussed_RL

> <ID>
20210618_204

> <SimilarityPheSA_2>
0.741

> <OPTIBRIUM.logD>
3.2517

> <OPTIBRIUM.BBB category>
-

> <OPTIBRIUM.logP>
3.2517

> <OPTIBRIUM.P-gp category>
no

> <OPTIBRIUM.logS>
1.31842

> <OPTIBRIUM.HIA category>
+

> <OPTIBRIUM.PPB90 category>
high

> <OPTIBRIUM.2D6 affinity category>
medium

> <OPTIBRIUM.hERG pIC50>
5.08171

> <OPTIBRIUM.2C9 pKi>
5.6397

> <OPTIBRIUM.BBB log([brain]:[blood])>
0.0635356

> <OPTIBRIUM.logS @ pH7.4>
1.31842

$$$$
Compound 205_1_6
haSeeSAR  07122114523D 1   1.00000     0.00000     0
SeeSAR 11.0.2 hazemaj
 45 47  0  0  0  0            999 V2000
   21.3670   -7.7110    2.0094 Cl  0  0  0  0  0  0  0  0  0  0  0  0
   20.5174   -9.1037    2.7219 C   0  0  0  0  0  0  0  0  0  0  0  0
   20.2872   -9.1379    4.0933 C   0  0  0  0  0  0  0  0  0  0  0  0
   20.0938  -10.1428    1.8997 C   0  0  0  0  0  0  0  0  0  0  0  0
   20.7066   -8.1187    4.8740 O   0  0  0  0  0  0  0  0  0  0  0  0
   19.6226  -10.2288    4.6433 C   0  0  0  0  0  0  0  0  0  0  0  0
   19.4317  -11.2243    2.4711 C   0  0  0  0  0  0  0  0  0  0  0  0
   21.9708   -8.1902    5.5165 C   0  0  0  0  0  0  0  0  0  0  0  0
   19.1901  -11.2788    3.8401 C   0  0  0  0  0  0  0  0  0  0  0  0
   19.3602  -10.2835    6.1400 C   0  0  0  0  0  0  0  0  0  0  0  0
   18.8851  -12.5589    1.4277 Cl  0  0  0  0  0  0  0  0  0  0  0  0
   18.4020  -11.3567    6.4298 N   0  0  0  0  0  0  0  0  0  0  0  0
   17.0747  -11.3646    6.0131 C   0  0  0  0  0  0  0  0  0  0  0  0
   18.6649  -12.5711    7.2199 C   0  0  0  0  0  0  0  0  0  0  0  0
   16.5598  -10.4461    5.3919 O   0  0  0  0  0  0  0  0  0  0  0  0
   16.4386  -12.5525    6.3981 N   0  0  0  0  0  0  0  0  0  0  0  0
   17.4257  -13.4254    7.0448 C   0  0  0  0  0  0  0  0  0  0  0  0
   15.0220  -12.8738    6.1606 C   0  0  0  0  0  0  0  0  0  0  0  0
   14.1453  -11.8915    6.9206 C   0  0  0  0  0  0  0  0  0  0  0  0
   13.5152  -10.8271    6.2841 C   0  0  0  0  0  0  0  0  0  0  0  0
   13.9626  -12.0523    8.2891 C   0  0  0  0  0  0  0  0  0  0  0  0
   13.6908  -10.6674    4.9547 O   0  0  0  0  0  0  0  0  0  0  0  0
   12.7464   -9.9747    6.9778 N   0  0  0  0  0  0  0  0  0  0  0  0
   13.1629  -11.1592    8.9935 C   0  0  0  0  0  0  0  0  0  0  0  0
   12.5728  -10.7131    4.0804 C   0  0  0  0  0  0  0  0  0  0  0  0
   12.5599  -10.1164    8.2988 C   0  0  0  0  0  0  0  0  0  0  0  0
   20.2627  -10.1127    0.9145 H   0  0  0  0  0  0  0  0  0  0  0  0
   22.1210   -7.3580    6.0503 H   0  0  0  0  0  0  0  0  0  0  0  0
   21.9916   -8.9842    6.1240 H   0  0  0  0  0  0  0  0  0  0  0  0
   22.6903   -8.2787    4.8276 H   0  0  0  0  0  0  0  0  0  0  0  0
   18.7128  -12.0609    4.2406 H   0  0  0  0  0  0  0  0  0  0  0  0
   18.9832   -9.4088    6.4445 H   0  0  0  0  0  0  0  0  0  0  0  0
   20.2176  -10.4630    6.6224 H   0  0  0  0  0  0  0  0  0  0  0  0
   18.8008  -12.3414    8.1836 H   0  0  0  0  0  0  0  0  0  0  0  0
   19.4729  -13.0480    6.8737 H   0  0  0  0  0  0  0  0  0  0  0  0
   17.0879  -13.7379    7.9326 H   0  0  0  0  0  0  0  0  0  0  0  0
   17.6249  -14.2166    6.4666 H   0  0  0  0  0  0  0  0  0  0  0  0
   14.8334  -13.8033    6.4776 H   0  0  0  0  0  0  0  0  0  0  0  0
   14.8250  -12.8088    5.1825 H   0  0  0  0  0  0  0  0  0  0  0  0
   14.4063  -12.8105    8.7671 H   0  0  0  0  0  0  0  0  0  0  0  0
   13.0243  -11.2644    9.9782 H   0  0  0  0  0  0  0  0  0  0  0  0
   12.8804  -10.5775    3.1385 H   0  0  0  0  0  0  0  0  0  0  0  0
   12.1239  -11.6032    4.1595 H   0  0  0  0  0  0  0  0  0  0  0  0
   11.9267   -9.9909    4.3272 H   0  0  0  0  0  0  0  0  0  0  0  0
   11.9809   -9.4649    8.7892 H   0  0  0  0  0  0  0  0  0  0  0  0
  1  2  1  0  0  0  0
  2  3  2  0  0  0  0
  2  4  1  0  0  0  0
  3  5  1  0  0  0  0
  3  6  1  0  0  0  0
  4  7  2  0  0  0  0
  5  8  1  0  0  0  0
  6  9  2  0  0  0  0
  6 10  1  0  0  0  0
  7 11  1  0  0  0  0
 10 12  1  0  0  0  0
 12 13  1  0  0  0  0
 12 14  1  0  0  0  0
 13 15  2  0  0  0  0
 13 16  1  0  0  0  0
 14 17  1  0  0  0  0
 16 18  1  0  0  0  0
 18 19  1  0  0  0  0
 19 20  2  0  0  0  0
 19 21  1  0  0  0  0
 20 22  1  0  0  0  0
 20 23  1  0  0  0  0
 21 24  2  0  0  0  0
 22 25  1  0  0  0  0
 23 26  2  0  0  0  0
  7  9  1  0  0  0  0
 16 17  1  0  0  0  0
 24 26  1  0  0  0  0
  4 27  1  0  0  0  0
  8 28  1  0  0  0  0
  8 29  1  0  0  0  0
  8 30  1  0  0  0  0
  9 31  1  0  0  0  0
 10 32  1  0  0  0  0
 10 33  1  0  0  0  0
 14 34  1  0  0  0  0
 14 35  1  0  0  0  0
 17 36  1  0  0  0  0
 17 37  1  0  0  0  0
 18 38  1  0  0  0  0
 18 39  1  0  0  0  0
 21 40  1  0  0  0  0
 24 41  1  0  0  0  0
 25 42  1  0  0  0  0
 25 43  1  0  0  0  0
 25 44  1  0  0  0  0
 26 45  1  0  0  0  0
M  END
> <BIOSOLVEIT.HYDE_ESTIMATED_AFFINITY_LOWER_BOUNDARY [nM]>
4286996.582163

> <BIOSOLVEIT.HYDE_ESTIMATED_AFFINITY_UPPER_BOUNDARY [nM]>
425938457.167615

> <BIOSOLVEIT.HYDE_LIGAND_EFFICIENCY range: ++, +, 0, -, -->
--

> <BIOSOLVEIT.HYDE_LIGAND_LIPOPHILIC_EFFICIENCY range: ++, +, 0, -, -->
--

> <BIOSOLVEIT.INTER_CLASH range: red, yellow, green>
red

> <BIOSOLVEIT.INTRA_CLASH range: red, yellow, green>
green

> <BIOSOLVEIT.LOGP>
3.8434

> <BIOSOLVEIT.MOLECULAR WEIGHT>
396.272

> <BIOSOLVEIT.MOLECULE_CHECKSUM>
LTcuODE1Njk7MC4zMDA2MDQ=

> <BIOSOLVEIT.TORSION_QUALITY range: red, yellow, green, not rotatable>
yellow

> <BIOSOLVEIT.TPSA>
54.9

> <BIOSOLVEIT.SEESAR_FAVORITE>
favorite

> <smc_score>
0.688

> <QED_score>
0.745

> <distance>
0.667

> <SimilarityPheSA_1>
0.694

> <Smiles>
COc1ncccc1CN1CCN(Cc2cc(Cl)cc(Cl)c2OC)C1=O

> <Similarity_SkelSpheres>
0.641

> <Cluster No>
101.0

> <QueryID>
JAN-GHE-5a013bed-2

> <SimilarityPheSA>
0.6942

> <Postera series>
3-aminopyridine-like

> <PDB_code>
Mpro-x10466

> <Approach>
DGM_focussed_RL

> <ID>
20210618_204

> <SimilarityPheSA_2>
0.741

> <OPTIBRIUM.logD>
3.2517

> <OPTIBRIUM.BBB category>
-

> <OPTIBRIUM.logP>
3.2517

> <OPTIBRIUM.P-gp category>
no

> <OPTIBRIUM.logS>
1.31842

> <OPTIBRIUM.HIA category>
+

> <OPTIBRIUM.PPB90 category>
high

> <OPTIBRIUM.2D6 affinity category>
medium

> <OPTIBRIUM.hERG pIC50>
5.08171

> <OPTIBRIUM.2C9 pKi>
5.6397

> <OPTIBRIUM.BBB log([brain]:[blood])>
0.0635356

> <OPTIBRIUM.logS @ pH7.4>
1.31842

$$$$
Compound 219_1_005
haSeeSAR  07122114523D 1   1.00000     0.00000     0
SeeSAR 11.0.2 hazemaj
 45 47  0  0  0  0            999 V2000
   18.2096  -20.2834    4.8701 Cl  0  0  0  0  0  0  0  0  0  0  0  0
   16.9886  -19.2007    4.1586 C   0  0  0  0  0  0  0  0  0  0  0  0
   16.2229  -18.3905    4.9906 C   0  0  0  0  0  0  0  0  0  0  0  0
   16.8132  -19.1774    2.7789 C   0  0  0  0  0  0  0  0  0  0  0  0
   16.4090  -18.4282    6.3277 O   0  0  0  0  0  0  0  0  0  0  0  0
   15.2711  -17.5467    4.4280 C   0  0  0  0  0  0  0  0  0  0  0  0
   15.8550  -18.3263    2.2379 C   0  0  0  0  0  0  0  0  0  0  0  0
   15.9726  -19.5548    7.0738 C   0  0  0  0  0  0  0  0  0  0  0  0
   15.0788  -17.5069    3.0511 C   0  0  0  0  0  0  0  0  0  0  0  0
   14.4255  -16.6523    5.3209 C   0  0  0  0  0  0  0  0  0  0  0  0
   15.6228  -18.2886    0.4735 Cl  0  0  0  0  0  0  0  0  0  0  0  0
   16.6020  -19.5817    8.2451 F   0  0  0  0  0  0  0  0  0  0  0  0
   14.6610  -19.4709    7.2771 F   0  0  0  0  0  0  0  0  0  0  0  0
   14.8928  -15.2622    5.2062 N   0  3  1  0  0  0  0  0  0  0  0  0
   16.3550  -15.2162    5.1117 C   0  0  0  0  0  0  0  0  0  0  0  0
   14.2920  -14.6821    3.9991 C   0  0  0  0  0  0  0  0  0  0  0  0
   16.8543  -13.7832    5.2389 C   0  0  0  0  0  0  0  0  0  0  0  0
   15.1689  -13.5475    3.4827 C   0  0  0  0  0  0  0  0  0  0  0  0
   15.8340  -12.9129    4.6269 N   0  0  0  0  0  0  0  0  0  0  0  0
   15.5387  -11.6254    5.0886 C   0  0  0  0  0  0  0  0  0  0  0  0
   16.1904  -10.6622    4.6846 O   0  0  0  0  0  0  0  0  0  0  0  0
   14.4651  -11.4256    6.0427 C   0  0  0  0  0  0  0  0  0  0  0  0
   13.2565  -10.8497    5.6643 C   0  0  0  0  0  0  0  0  0  0  0  0
   14.6318  -11.8133    7.3680 C   0  0  0  0  0  0  0  0  0  0  0  0
   12.2695  -10.6702    6.5544 N   0  0  0  0  0  0  0  0  0  0  0  0
   13.5977  -11.6190    8.2775 C   0  0  0  0  0  0  0  0  0  0  0  0
   12.4135  -11.0381    7.8361 C   0  0  0  0  0  0  0  0  0  0  0  0
   17.3664  -19.7625    2.1860 H   0  0  0  0  0  0  0  0  0  0  0  0
   16.1783  -20.3912    6.5656 H   0  0  0  0  0  0  0  0  0  0  0  0
   14.3929  -16.8985    2.6517 H   0  0  0  0  0  0  0  0  0  0  0  0
   14.5088  -16.9546    6.2705 H   0  0  0  0  0  0  0  0  0  0  0  0
   13.4683  -16.7068    5.0366 H   0  0  0  0  0  0  0  0  0  0  0  0
   16.6392  -15.5862    4.2272 H   0  0  0  0  0  0  0  0  0  0  0  0
   16.7495  -15.7683    5.8463 H   0  0  0  0  0  0  0  0  0  0  0  0
   13.3834  -14.3266    4.2180 H   0  0  0  0  0  0  0  0  0  0  0  0
   14.2131  -15.3878    3.2950 H   0  0  0  0  0  0  0  0  0  0  0  0
   17.7257  -13.6797    4.7595 H   0  0  0  0  0  0  0  0  0  0  0  0
   16.9740  -13.5459    6.2030 H   0  0  0  0  0  0  0  0  0  0  0  0
   14.6032  -12.8746    3.0059 H   0  0  0  0  0  0  0  0  0  0  0  0
   15.8553  -13.9117    2.8533 H   0  0  0  0  0  0  0  0  0  0  0  0
   13.1217  -10.5657    4.7150 H   0  0  0  0  0  0  0  0  0  0  0  0
   15.4911  -12.2298    7.6653 H   0  0  0  0  0  0  0  0  0  0  0  0
   13.7038  -11.8927    9.2336 H   0  0  0  0  0  0  0  0  0  0  0  0
   11.6625  -10.8933    8.4804 H   0  0  0  0  0  0  0  0  0  0  0  0
   14.5949  -14.7440    6.0078 H   0  0  0  0  0  0  0  0  0  0  0  0
  1  2  1  0  0  0  0
  2  3  2  0  0  0  0
  2  4  1  0  0  0  0
  3  5  1  0  0  0  0
  3  6  1  0  0  0  0
  4  7  2  0  0  0  0
  5  8  1  0  0  0  0
  6  9  2  0  0  0  0
  6 10  1  0  0  0  0
  7 11  1  0  0  0  0
  8 12  1  0  0  0  0
  8 13  1  0  0  0  0
 10 14  1  0  0  0  0
 14 15  1  0  0  0  0
 14 16  1  0  0  0  0
 15 17  1  0  0  0  0
 16 18  1  0  0  0  0
 17 19  1  0  0  0  0
 19 20  1  0  0  0  0
 20 21  2  0  0  0  0
 20 22  1  0  0  0  0
 22 23  2  0  0  0  0
 22 24  1  0  0  0  0
 23 25  1  0  0  0  0
 24 26  2  0  0  0  0
 25 27  2  0  0  0  0
  7  9  1  0  0  0  0
 18 19  1  0  0  0  0
 26 27  1  0  0  0  0
  4 28  1  0  0  0  0
  8 29  1  0  0  0  0
  9 30  1  0  0  0  0
 10 31  1  0  0  0  0
 10 32  1  0  0  0  0
 15 33  1  0  0  0  0
 15 34  1  0  0  0  0
 16 35  1  0  0  0  0
 16 36  1  0  0  0  0
 17 37  1  0  0  0  0
 17 38  1  0  0  0  0
 18 39  1  0  0  0  0
 18 40  1  0  0  0  0
 23 41  1  0  0  0  0
 24 42  1  0  0  0  0
 26 43  1  0  0  0  0
 27 44  1  0  0  0  0
 14 45  1  0  0  0  0
M  CHG  1  14   1
M  END
> <BIOSOLVEIT.HYDE_ESTIMATED_AFFINITY_LOWER_BOUNDARY [nM]>
286299.386318

> <BIOSOLVEIT.HYDE_ESTIMATED_AFFINITY_UPPER_BOUNDARY [nM]>
28445536.766621

> <BIOSOLVEIT.HYDE_LIGAND_EFFICIENCY range: ++, +, 0, -, -->
--

> <BIOSOLVEIT.HYDE_LIGAND_LIPOPHILIC_EFFICIENCY range: ++, +, 0, -, -->
--

> <BIOSOLVEIT.INTER_CLASH range: red, yellow, green>
green

> <BIOSOLVEIT.INTRA_CLASH range: red, yellow, green>
green

> <BIOSOLVEIT.LOGP>
2.5307

> <BIOSOLVEIT.MOLECULAR WEIGHT>
417.261

> <BIOSOLVEIT.MOLECULE_CHECKSUM>
LTE0LjUyNDU7MC41Mzc5NDQ=

> <BIOSOLVEIT.TORSION_QUALITY range: red, yellow, green, not rotatable>
yellow

> <BIOSOLVEIT.TPSA>
46.87

> <BIOSOLVEIT.SEESAR_FAVORITE>
favorite

> <smc_score>
0.75

> <QED_score>
0.741

> <distance>
0.667

> <SimilarityPheSA_1>
0.658

> <Smiles>
O=C(c1cccnc1)N1CCN(Cc2cc(Cl)cc(Cl)c2OC(F)F)CC1

> <Similarity_SkelSpheres>
0.68

> <Cluster No>
109.0

> <QueryID>
MAT-POS-8a69d52e-7

> <SimilarityPheSA>
0.6577

> <Postera series>
3-aminopyridine-like

> <PDB_code>
Mpro-x12073

> <Approach>
DGM_focussed_RL

> <ID>
20210618_218

> <SimilarityPheSA_2>
0.737

> <OPTIBRIUM.logD>
2.0445

> <OPTIBRIUM.BBB category>
-

> <OPTIBRIUM.logP>
2.15263

> <OPTIBRIUM.P-gp category>
yes

> <OPTIBRIUM.logS>
2.46376

> <OPTIBRIUM.HIA category>
+

> <OPTIBRIUM.PPB90 category>
high

> <OPTIBRIUM.2D6 affinity category>
medium

> <OPTIBRIUM.hERG pIC50>
5.39927

> <OPTIBRIUM.2C9 pKi>
5.36491

> <OPTIBRIUM.BBB log([brain]:[blood])>
-0.0365892

> <OPTIBRIUM.logS @ pH7.4>
1.84654

$$$$
Compound 219_1_006
haSeeSAR  07122114523D 1   1.00000     0.00000     0
SeeSAR 11.0.2 hazemaj
 45 47  0  0  0  0            999 V2000
   17.4672  -19.4905    2.3181 Cl  0  0  0  0  0  0  0  0  0  0  0  0
   16.7756  -18.9578    3.8696 C   0  0  0  0  0  0  0  0  0  0  0  0
   15.7453  -18.0233    3.8760 C   0  0  0  0  0  0  0  0  0  0  0  0
   17.2736  -19.4811    5.0584 C   0  0  0  0  0  0  0  0  0  0  0  0
   15.2761  -17.5276    2.7107 O   0  0  0  0  0  0  0  0  0  0  0  0
   15.2094  -17.6118    5.0916 C   0  0  0  0  0  0  0  0  0  0  0  0
   16.7233  -19.0549    6.2627 C   0  0  0  0  0  0  0  0  0  0  0  0
   14.2329  -18.2007    2.0214 C   0  0  0  0  0  0  0  0  0  0  0  0
   15.6917  -18.1219    6.2924 C   0  0  0  0  0  0  0  0  0  0  0  0
   14.0814  -16.5923    5.1190 C   0  0  0  0  0  0  0  0  0  0  0  0
   17.3530  -19.7188    7.7895 Cl  0  0  0  0  0  0  0  0  0  0  0  0
   13.1845  -17.3908    1.9041 F   0  0  0  0  0  0  0  0  0  0  0  0
   14.6571  -18.5549    0.8118 F   0  0  0  0  0  0  0  0  0  0  0  0
   14.6475  -15.2346    5.1121 N   0  3  1  0  0  0  0  0  0  0  0  0
   16.0912  -15.2768    5.3634 C   0  0  0  0  0  0  0  0  0  0  0  0
   14.3830  -14.6419    3.7954 C   0  0  0  0  0  0  0  0  0  0  0  0
   16.6342  -13.8738    5.5989 C   0  0  0  0  0  0  0  0  0  0  0  0
   15.4246  -13.5706    3.4952 C   0  0  0  0  0  0  0  0  0  0  0  0
   15.8413  -12.9559    4.7613 N   0  0  0  0  0  0  0  0  0  0  0  0
   15.5261  -11.6450    5.1359 C   0  0  0  0  0  0  0  0  0  0  0  0
   16.1608  -10.7009    4.6655 O   0  0  0  0  0  0  0  0  0  0  0  0
   14.4518  -11.3987    6.0783 C   0  0  0  0  0  0  0  0  0  0  0  0
   13.2284  -10.8686    5.6815 C   0  0  0  0  0  0  0  0  0  0  0  0
   14.6387  -11.6961    7.4236 C   0  0  0  0  0  0  0  0  0  0  0  0
   12.2502  -10.6489    6.5725 N   0  0  0  0  0  0  0  0  0  0  0  0
   13.6151  -11.4636    8.3360 C   0  0  0  0  0  0  0  0  0  0  0  0
   12.4164  -10.9317    7.8729 C   0  0  0  0  0  0  0  0  0  0  0  0
   18.0148  -20.1524    5.0474 H   0  0  0  0  0  0  0  0  0  0  0  0
   13.9675  -19.0174    2.5340 H   0  0  0  0  0  0  0  0  0  0  0  0
   15.3030  -17.8226    7.1637 H   0  0  0  0  0  0  0  0  0  0  0  0
   13.5354  -16.7215    5.9467 H   0  0  0  0  0  0  0  0  0  0  0  0
   13.5011  -16.7157    4.3141 H   0  0  0  0  0  0  0  0  0  0  0  0
   16.5512  -15.6788    4.5717 H   0  0  0  0  0  0  0  0  0  0  0  0
   16.2678  -15.8379    6.1720 H   0  0  0  0  0  0  0  0  0  0  0  0
   13.4720  -14.2294    3.7937 H   0  0  0  0  0  0  0  0  0  0  0  0
   14.4277  -15.3544    3.0952 H   0  0  0  0  0  0  0  0  0  0  0  0
   17.5983  -13.8307    5.3371 H   0  0  0  0  0  0  0  0  0  0  0  0
   16.5392  -13.6266    6.5632 H   0  0  0  0  0  0  0  0  0  0  0  0
   15.0290  -12.8742    2.8966 H   0  0  0  0  0  0  0  0  0  0  0  0
   16.2155  -13.9862    3.0459 H   0  0  0  0  0  0  0  0  0  0  0  0
   13.0762  -10.6481    4.7180 H   0  0  0  0  0  0  0  0  0  0  0  0
   15.5091  -12.0774    7.7351 H   0  0  0  0  0  0  0  0  0  0  0  0
   13.7385  -11.6747    9.3057 H   0  0  0  0  0  0  0  0  0  0  0  0
   11.6706  -10.7584    8.5162 H   0  0  0  0  0  0  0  0  0  0  0  0
   14.2027  -14.6853    5.8194 H   0  0  0  0  0  0  0  0  0  0  0  0
  1  2  1  0  0  0  0
  2  3  2  0  0  0  0
  2  4  1  0  0  0  0
  3  5  1  0  0  0  0
  3  6  1  0  0  0  0
  4  7  2  0  0  0  0
  5  8  1  0  0  0  0
  6  9  2  0  0  0  0
  6 10  1  0  0  0  0
  7 11  1  0  0  0  0
  8 12  1  0  0  0  0
  8 13  1  0  0  0  0
 10 14  1  0  0  0  0
 14 15  1  0  0  0  0
 14 16  1  0  0  0  0
 15 17  1  0  0  0  0
 16 18  1  0  0  0  0
 17 19  1  0  0  0  0
 19 20  1  0  0  0  0
 20 21  2  0  0  0  0
 20 22  1  0  0  0  0
 22 23  2  0  0  0  0
 22 24  1  0  0  0  0
 23 25  1  0  0  0  0
 24 26  2  0  0  0  0
 25 27  2  0  0  0  0
  7  9  1  0  0  0  0
 18 19  1  0  0  0  0
 26 27  1  0  0  0  0
  4 28  1  0  0  0  0
  8 29  1  0  0  0  0
  9 30  1  0  0  0  0
 10 31  1  0  0  0  0
 10 32  1  0  0  0  0
 15 33  1  0  0  0  0
 15 34  1  0  0  0  0
 16 35  1  0  0  0  0
 16 36  1  0  0  0  0
 17 37  1  0  0  0  0
 17 38  1  0  0  0  0
 18 39  1  0  0  0  0
 18 40  1  0  0  0  0
 23 41  1  0  0  0  0
 24 42  1  0  0  0  0
 26 43  1  0  0  0  0
 27 44  1  0  0  0  0
 14 45  1  0  0  0  0
M  CHG  1  14   1
M  END
> <BIOSOLVEIT.HYDE_ESTIMATED_AFFINITY_LOWER_BOUNDARY [nM]>
541939.845254

> <BIOSOLVEIT.HYDE_ESTIMATED_AFFINITY_UPPER_BOUNDARY [nM]>
53844927.827886

> <BIOSOLVEIT.HYDE_LIGAND_EFFICIENCY range: ++, +, 0, -, -->
--

> <BIOSOLVEIT.HYDE_LIGAND_LIPOPHILIC_EFFICIENCY range: ++, +, 0, -, -->
--

> <BIOSOLVEIT.INTER_CLASH range: red, yellow, green>
green

> <BIOSOLVEIT.INTRA_CLASH range: red, yellow, green>
yellow

> <BIOSOLVEIT.LOGP>
2.5307

> <BIOSOLVEIT.MOLECULAR WEIGHT>
417.261

> <BIOSOLVEIT.MOLECULE_CHECKSUM>
LTEyLjk0MjY7MC40NzkzNTc=

> <BIOSOLVEIT.TORSION_QUALITY range: red, yellow, green, not rotatable>
yellow

> <BIOSOLVEIT.TPSA>
46.87

> <BIOSOLVEIT.SEESAR_FAVORITE>
favorite

> <smc_score>
0.75

> <QED_score>
0.741

> <distance>
0.667

> <SimilarityPheSA_1>
0.658

> <Smiles>
O=C(c1cccnc1)N1CCN(Cc2cc(Cl)cc(Cl)c2OC(F)F)CC1

> <Similarity_SkelSpheres>
0.68

> <Cluster No>
109.0

> <QueryID>
MAT-POS-8a69d52e-7

> <SimilarityPheSA>
0.6577

> <Postera series>
3-aminopyridine-like

> <PDB_code>
Mpro-x12073

> <Approach>
DGM_focussed_RL

> <ID>
20210618_218

> <SimilarityPheSA_2>
0.737

> <OPTIBRIUM.logD>
2.0445

> <OPTIBRIUM.BBB category>
-

> <OPTIBRIUM.logP>
2.15263

> <OPTIBRIUM.P-gp category>
yes

> <OPTIBRIUM.logS>
2.46376

> <OPTIBRIUM.HIA category>
+

> <OPTIBRIUM.PPB90 category>
high

> <OPTIBRIUM.2D6 affinity category>
medium

> <OPTIBRIUM.hERG pIC50>
5.39927

> <OPTIBRIUM.2C9 pKi>
5.36491

> <OPTIBRIUM.BBB log([brain]:[blood])>
-0.0365892

> <OPTIBRIUM.logS @ pH7.4>
1.84654

$$$$
Compound 219_1_007
haSeeSAR  07122114523D 1   1.00000     0.00000     0
SeeSAR 11.0.2 hazemaj
 45 47  0  0  0  0            999 V2000
   16.6611  -19.8231    2.0324 Cl  0  0  0  0  0  0  0  0  0  0  0  0
   15.5514  -19.0277    3.1748 C   0  0  0  0  0  0  0  0  0  0  0  0
   14.9077  -17.8530    2.7998 C   0  0  0  0  0  0  0  0  0  0  0  0
   15.3408  -19.5891    4.4300 C   0  0  0  0  0  0  0  0  0  0  0  0
   15.1261  -17.3244    1.5764 O   0  0  0  0  0  0  0  0  0  0  0  0
   14.0419  -17.2370    3.6971 C   0  0  0  0  0  0  0  0  0  0  0  0
   14.4712  -18.9558    5.3118 C   0  0  0  0  0  0  0  0  0  0  0  0
   16.4388  -16.9441    1.1911 C   0  0  0  0  0  0  0  0  0  0  0  0
   13.8163  -17.7807    4.9574 C   0  0  0  0  0  0  0  0  0  0  0  0
   13.3277  -15.9531    3.3049 C   0  0  0  0  0  0  0  0  0  0  0  0
   14.1944  -19.6662    6.9203 Cl  0  0  0  0  0  0  0  0  0  0  0  0
   16.5012  -16.8463   -0.1339 F   0  0  0  0  0  0  0  0  0  0  0  0
   16.7381  -15.7687    1.7369 F   0  0  0  0  0  0  0  0  0  0  0  0
   14.0882  -14.7970    3.8040 N   0  3  1  0  0  0  0  0  0  0  0  0
   15.3211  -15.2370    4.4639 C   0  0  0  0  0  0  0  0  0  0  0  0
   14.4097  -13.9389    2.6573 C   0  0  0  0  0  0  0  0  0  0  0  0
   15.9833  -14.0740    5.1903 C   0  0  0  0  0  0  0  0  0  0  0  0
   15.6605  -13.1226    2.9606 C   0  0  0  0  0  0  0  0  0  0  0  0
   15.7076  -12.8582    4.4037 N   0  0  0  0  0  0  0  0  0  0  0  0
   15.5152  -11.5953    4.9746 C   0  0  0  0  0  0  0  0  0  0  0  0
   16.2407  -10.6556    4.6491 O   0  0  0  0  0  0  0  0  0  0  0  0
   14.4612  -11.3934    5.9499 C   0  0  0  0  0  0  0  0  0  0  0  0
   13.2240  -10.8618    5.6008 C   0  0  0  0  0  0  0  0  0  0  0  0
   14.6824  -11.7366    7.2790 C   0  0  0  0  0  0  0  0  0  0  0  0
   12.2649  -10.6838    6.5215 N   0  0  0  0  0  0  0  0  0  0  0  0
   13.6784  -11.5469    8.2225 C   0  0  0  0  0  0  0  0  0  0  0  0
   12.4643  -11.0109    7.8067 C   0  0  0  0  0  0  0  0  0  0  0  0
   15.8067  -20.4337    4.6940 H   0  0  0  0  0  0  0  0  0  0  0  0
   17.0913  -17.6335    1.5056 H   0  0  0  0  0  0  0  0  0  0  0  0
   13.1928  -17.3337    5.5988 H   0  0  0  0  0  0  0  0  0  0  0  0
   12.4109  -15.9464    3.7040 H   0  0  0  0  0  0  0  0  0  0  0  0
   13.2581  -15.9014    2.3087 H   0  0  0  0  0  0  0  0  0  0  0  0
   15.9516  -15.5970    3.7762 H   0  0  0  0  0  0  0  0  0  0  0  0
   15.1023  -15.9554    5.1241 H   0  0  0  0  0  0  0  0  0  0  0  0
   13.6442  -13.3205    2.4801 H   0  0  0  0  0  0  0  0  0  0  0  0
   14.5718  -14.5083    1.8513 H   0  0  0  0  0  0  0  0  0  0  0  0
   16.9697  -14.2256    5.2530 H   0  0  0  0  0  0  0  0  0  0  0  0
   15.6011  -13.9816    6.1097 H   0  0  0  0  0  0  0  0  0  0  0  0
   15.6279  -12.2574    2.4604 H   0  0  0  0  0  0  0  0  0  0  0  0
   16.4731  -13.6364    2.6854 H   0  0  0  0  0  0  0  0  0  0  0  0
   13.0471  -10.6088    4.6496 H   0  0  0  0  0  0  0  0  0  0  0  0
   15.5633  -12.1199    7.5564 H   0  0  0  0  0  0  0  0  0  0  0  0
   13.8266  -11.7910    9.1810 H   0  0  0  0  0  0  0  0  0  0  0  0
   11.7323  -10.8680    8.4730 H   0  0  0  0  0  0  0  0  0  0  0  0
   13.5270  -14.2858    4.4548 H   0  0  0  0  0  0  0  0  0  0  0  0
  1  2  1  0  0  0  0
  2  3  2  0  0  0  0
  2  4  1  0  0  0  0
  3  5  1  0  0  0  0
  3  6  1  0  0  0  0
  4  7  2  0  0  0  0
  5  8  1  0  0  0  0
  6  9  2  0  0  0  0
  6 10  1  0  0  0  0
  7 11  1  0  0  0  0
  8 12  1  0  0  0  0
  8 13  1  0  0  0  0
 10 14  1  0  0  0  0
 14 15  1  0  0  0  0
 14 16  1  0  0  0  0
 15 17  1  0  0  0  0
 16 18  1  0  0  0  0
 17 19  1  0  0  0  0
 19 20  1  0  0  0  0
 20 21  2  0  0  0  0
 20 22  1  0  0  0  0
 22 23  2  0  0  0  0
 22 24  1  0  0  0  0
 23 25  1  0  0  0  0
 24 26  2  0  0  0  0
 25 27  2  0  0  0  0
  7  9  1  0  0  0  0
 18 19  1  0  0  0  0
 26 27  1  0  0  0  0
  4 28  1  0  0  0  0
  8 29  1  0  0  0  0
  9 30  1  0  0  0  0
 10 31  1  0  0  0  0
 10 32  1  0  0  0  0
 15 33  1  0  0  0  0
 15 34  1  0  0  0  0
 16 35  1  0  0  0  0
 16 36  1  0  0  0  0
 17 37  1  0  0  0  0
 17 38  1  0  0  0  0
 18 39  1  0  0  0  0
 18 40  1  0  0  0  0
 23 41  1  0  0  0  0
 24 42  1  0  0  0  0
 26 43  1  0  0  0  0
 27 44  1  0  0  0  0
 14 45  1  0  0  0  0
M  CHG  1  14   1
M  END
> <BIOSOLVEIT.HYDE_ESTIMATED_AFFINITY_LOWER_BOUNDARY [nM]>
290593.351480

> <BIOSOLVEIT.HYDE_ESTIMATED_AFFINITY_UPPER_BOUNDARY [nM]>
28872167.593421

> <BIOSOLVEIT.HYDE_LIGAND_EFFICIENCY range: ++, +, 0, -, -->
--

> <BIOSOLVEIT.HYDE_LIGAND_LIPOPHILIC_EFFICIENCY range: ++, +, 0, -, -->
--

> <BIOSOLVEIT.INTER_CLASH range: red, yellow, green>
green

> <BIOSOLVEIT.INTRA_CLASH range: red, yellow, green>
yellow

> <BIOSOLVEIT.LOGP>
2.5307

> <BIOSOLVEIT.MOLECULAR WEIGHT>
417.261

> <BIOSOLVEIT.MOLECULE_CHECKSUM>
LTE0LjQ4NzY7MC41MzY1Nzg=

> <BIOSOLVEIT.TORSION_QUALITY range: red, yellow, green, not rotatable>
yellow

> <BIOSOLVEIT.TPSA>
46.87

> <BIOSOLVEIT.SEESAR_FAVORITE>
favorite

> <smc_score>
0.75

> <QED_score>
0.741

> <distance>
0.667

> <SimilarityPheSA_1>
0.658

> <Smiles>
O=C(c1cccnc1)N1CCN(Cc2cc(Cl)cc(Cl)c2OC(F)F)CC1

> <Similarity_SkelSpheres>
0.68

> <Cluster No>
109.0

> <QueryID>
MAT-POS-8a69d52e-7

> <SimilarityPheSA>
0.6577

> <Postera series>
3-aminopyridine-like

> <PDB_code>
Mpro-x12073

> <Approach>
DGM_focussed_RL

> <ID>
20210618_218

> <SimilarityPheSA_2>
0.737

> <OPTIBRIUM.logD>
2.0445

> <OPTIBRIUM.BBB category>
-

> <OPTIBRIUM.logP>
2.15263

> <OPTIBRIUM.P-gp category>
yes

> <OPTIBRIUM.logS>
2.46376

> <OPTIBRIUM.HIA category>
+

> <OPTIBRIUM.PPB90 category>
high

> <OPTIBRIUM.2D6 affinity category>
medium

> <OPTIBRIUM.hERG pIC50>
5.39927

> <OPTIBRIUM.2C9 pKi>
5.36491

> <OPTIBRIUM.BBB log([brain]:[blood])>
-0.0365892

> <OPTIBRIUM.logS @ pH7.4>
1.84654

$$$$
Compound 244_1_1
haSeeSAR  07122114523D 1   1.00000     0.00000     0
SeeSAR 11.0.2 hazemaj
 44 46  0  0  0  0            999 V2000
   20.9535   -5.7477    3.3777 Cl  0  0  0  0  0  0  0  0  0  0  0  0
   21.1097   -7.5206    3.4032 C   0  0  0  0  0  0  0  0  0  0  0  0
   22.3232   -8.1030    3.7533 C   0  0  0  0  0  0  0  0  0  0  0  0
   20.0176   -8.3153    3.0724 C   0  0  0  0  0  0  0  0  0  0  0  0
   23.7123   -7.0727    4.1743 Cl  0  0  0  0  0  0  0  0  0  0  0  0
   22.4643   -9.4868    3.7783 C   0  0  0  0  0  0  0  0  0  0  0  0
   20.1623   -9.6981    3.0986 C   0  0  0  0  0  0  0  0  0  0  0  0
   21.3742  -10.2853    3.4479 C   0  0  0  0  0  0  0  0  0  0  0  0
   19.0257  -10.5304    2.7542 C   0  0  0  0  0  0  0  0  0  0  0  0
   18.4876  -10.4125    1.6534 O   0  0  0  0  0  0  0  0  0  0  0  0
   18.5398  -11.4692    3.6752 N   0  0  0  0  0  0  0  0  0  0  0  0
   17.6642  -12.6031    3.3718 C   0  0  0  0  0  0  0  0  0  0  0  0
   18.8106  -11.4792    5.1160 C   0  0  0  0  0  0  0  0  0  0  0  0
   16.9052  -12.8186    4.6627 C   0  0  1  0  0  0  0  0  0  0  0  0
   18.0250  -12.6571    5.6611 C   0  0  0  0  0  0  0  0  0  0  0  0
   15.7887  -11.8098    4.8701 C   0  0  0  0  0  0  0  0  0  0  0  0
   16.0589  -10.6391    5.1381 O   0  0  0  0  0  0  0  0  0  0  0  0
   14.5258  -12.1892    4.7627 N   0  0  0  0  0  0  0  0  0  0  0  0
   13.4454  -11.2129    4.9634 C   0  0  0  0  0  0  0  0  0  0  0  0
   12.4122  -11.7898    5.9162 C   0  0  2  0  0  0  0  0  0  0  0  0
   11.7816  -10.8251    6.7453 O   0  0  0  0  0  0  0  0  0  0  0  0
   13.0356  -12.7047    6.9577 C   0  0  0  0  0  0  0  0  0  0  0  0
   12.6692  -10.5040    7.8014 C   0  0  0  0  0  0  0  0  0  0  0  0
   13.5712  -11.7122    7.9642 C   0  0  0  0  0  0  0  0  0  0  0  0
   19.1437   -7.8998    2.8201 H   0  0  0  0  0  0  0  0  0  0  0  0
   23.3383   -9.9021    4.0307 H   0  0  0  0  0  0  0  0  0  0  0  0
   21.4617  -11.2813    3.4615 H   0  0  0  0  0  0  0  0  0  0  0  0
   18.1988  -13.4134    3.1320 H   0  0  0  0  0  0  0  0  0  0  0  0
   17.0398  -12.3821    2.6226 H   0  0  0  0  0  0  0  0  0  0  0  0
   18.5010  -10.6265    5.5367 H   0  0  0  0  0  0  0  0  0  0  0  0
   19.7883  -11.6000    5.2880 H   0  0  0  0  0  0  0  0  0  0  0  0
   16.5413  -13.7494    4.6986 H   0  0  0  0  0  0  0  0  0  0  0  0
   17.6662  -12.4573    6.5729 H   0  0  0  0  0  0  0  0  0  0  0  0
   18.5926  -13.4796    5.6992 H   0  0  0  0  0  0  0  0  0  0  0  0
   14.3063  -13.1402    4.5449 H   0  0  0  0  0  0  0  0  0  0  0  0
   13.0123  -11.0098    4.0853 H   0  0  0  0  0  0  0  0  0  0  0  0
   13.8235  -10.3723    5.3510 H   0  0  0  0  0  0  0  0  0  0  0  0
   11.7200  -12.2921    5.3982 H   0  0  0  0  0  0  0  0  0  0  0  0
   13.7710  -13.2561    6.5639 H   0  0  0  0  0  0  0  0  0  0  0  0
   12.3513  -13.3067    7.3693 H   0  0  0  0  0  0  0  0  0  0  0  0
   12.1598  -10.3334    8.6448 H   0  0  0  0  0  0  0  0  0  0  0  0
   13.2091   -9.6951    7.5687 H   0  0  0  0  0  0  0  0  0  0  0  0
   14.5216  -11.4767    7.7605 H   0  0  0  0  0  0  0  0  0  0  0  0
   13.5104  -12.0790    8.8925 H   0  0  0  0  0  0  0  0  0  0  0  0
  1  2  1  0  0  0  0
  2  3  2  0  0  0  0
  2  4  1  0  0  0  0
  3  5  1  0  0  0  0
  3  6  1  0  0  0  0
  4  7  2  0  0  0  0
  6  8  2  0  0  0  0
  7  9  1  0  0  0  0
  9 10  2  0  0  0  0
  9 11  1  0  0  0  0
 11 12  1  0  0  0  0
 11 13  1  0  0  0  0
 12 14  1  0  0  0  0
 13 15  1  0  0  0  0
 14 16  1  0  0  0  0
 16 17  2  0  0  0  0
 16 18  1  0  0  0  0
 18 19  1  0  0  0  0
 19 20  1  0  0  0  0
 20 21  1  0  0  0  0
 20 22  1  0  0  0  0
 21 23  1  0  0  0  0
 22 24  1  0  0  0  0
  7  8  1  0  0  0  0
 14 15  1  0  0  0  0
 23 24  1  0  0  0  0
  4 25  1  0  0  0  0
  6 26  1  0  0  0  0
  8 27  1  0  0  0  0
 12 28  1  0  0  0  0
 12 29  1  0  0  0  0
 13 30  1  0  0  0  0
 13 31  1  0  0  0  0
 14 32  1  0  0  0  0
 15 33  1  0  0  0  0
 15 34  1  0  0  0  0
 18 35  1  0  0  0  0
 19 36  1  0  0  0  0
 19 37  1  0  0  0  0
 20 38  1  0  0  0  0
 22 39  1  0  0  0  0
 22 40  1  0  0  0  0
 23 41  1  0  0  0  0
 23 42  1  0  0  0  0
 24 43  1  0  0  0  0
 24 44  1  0  0  0  0
M  END
> <BIOSOLVEIT.HYDE_ESTIMATED_AFFINITY_LOWER_BOUNDARY [nM]>
24039619.532871

> <BIOSOLVEIT.HYDE_ESTIMATED_AFFINITY_UPPER_BOUNDARY [nM]>
2388478334.070024

> <BIOSOLVEIT.HYDE_LIGAND_EFFICIENCY range: ++, +, 0, -, -->
--

> <BIOSOLVEIT.HYDE_LIGAND_LIPOPHILIC_EFFICIENCY range: ++, +, 0, -, -->
--

> <BIOSOLVEIT.INTER_CLASH range: red, yellow, green>
green

> <BIOSOLVEIT.INTRA_CLASH range: red, yellow, green>
green

> <BIOSOLVEIT.LOGP>
2.7507

> <BIOSOLVEIT.MOLECULAR WEIGHT>
371.262

> <BIOSOLVEIT.MOLECULE_CHECKSUM>
LTMuNTQxNjg7MC4xNDc1Nw==

> <BIOSOLVEIT.TORSION_QUALITY range: red, yellow, green, not rotatable>
yellow

> <BIOSOLVEIT.TPSA>
58.64

> <BIOSOLVEIT.SEESAR_FAVORITE>
favorite

> <smc_score>
0.688

> <QED_score>
0.886

> <distance>
0.705

> <SimilarityPheSA_1>
0.672

> <Smiles>
O=C(NCC1CCCO1)C1CCN(C(=O)c2ccc(Cl)c(Cl)c2)C1

> <Similarity_SkelSpheres>
0.599

> <Cluster No>
120.0

> <QueryID>
PET-UNK-3c72d439-1

> <SimilarityPheSA>
0.6717

> <Postera series>
3-aminopyridine-like

> <PDB_code>
Mpro-x11810

> <Approach>
DGM_focussed_RL

> <ID>
20210618_243

> <SimilarityPheSA_2>
0.679

> <OPTIBRIUM.logD>
2.23198

> <OPTIBRIUM.BBB category>
-

> <OPTIBRIUM.logP>
2.23198

> <OPTIBRIUM.P-gp category>
yes

> <OPTIBRIUM.logS>
2.43609

> <OPTIBRIUM.HIA category>
+

> <OPTIBRIUM.PPB90 category>
low

> <OPTIBRIUM.2D6 affinity category>
high

> <OPTIBRIUM.hERG pIC50>
4.42225

> <OPTIBRIUM.2C9 pKi>
4.82792

> <OPTIBRIUM.BBB log([brain]:[blood])>
-0.295437

> <OPTIBRIUM.logS @ pH7.4>
2.43609

$$$$
Compound 244_1_2
haSeeSAR  07122114523D 1   1.00000     0.00000     0
SeeSAR 11.0.2 hazemaj
 44 46  0  0  0  0            999 V2000
   19.0106   -6.2640    2.3065 Cl  0  0  0  0  0  0  0  0  0  0  0  0
   19.8454   -7.7637    2.7783 C   0  0  0  0  0  0  0  0  0  0  0  0
   21.1560   -7.7137    3.2411 C   0  0  0  0  0  0  0  0  0  0  0  0
   19.1762   -8.9787    2.6799 C   0  0  0  0  0  0  0  0  0  0  0  0
   21.9913   -6.1461    3.3563 Cl  0  0  0  0  0  0  0  0  0  0  0  0
   21.8175   -8.8795    3.6130 C   0  0  0  0  0  0  0  0  0  0  0  0
   19.8428  -10.1402    3.0541 C   0  0  0  0  0  0  0  0  0  0  0  0
   21.1532  -10.0979    3.5178 C   0  0  0  0  0  0  0  0  0  0  0  0
   19.1600  -11.4150    2.9579 C   0  0  0  0  0  0  0  0  0  0  0  0
   19.0567  -11.9772    1.8677 O   0  0  0  0  0  0  0  0  0  0  0  0
   18.6173  -12.0079    4.1065 N   0  0  0  0  0  0  0  0  0  0  0  0
   17.7564  -13.1921    4.1425 C   0  0  0  0  0  0  0  0  0  0  0  0
   18.8034  -11.5417    5.4839 C   0  0  0  0  0  0  0  0  0  0  0  0
   16.9223  -12.9847    5.3876 C   0  0  1  0  0  0  0  0  0  0  0  0
   17.9826  -12.4882    6.3396 C   0  0  0  0  0  0  0  0  0  0  0  0
   15.7997  -11.9807    5.1896 C   0  0  0  0  0  0  0  0  0  0  0  0
   16.0216  -10.7765    5.3158 O   0  0  0  0  0  0  0  0  0  0  0  0
   14.5835  -12.4006    4.8813 N   0  0  0  0  0  0  0  0  0  0  0  0
   13.4972  -11.4290    4.6897 C   0  0  0  0  0  0  0  0  0  0  0  0
   12.4827  -11.5761    5.8109 C   0  0  2  0  0  0  0  0  0  0  0  0
   12.3811  -10.3535    6.5186 O   0  0  0  0  0  0  0  0  0  0  0  0
   12.9312  -12.6132    6.8191 C   0  0  0  0  0  0  0  0  0  0  0  0
   12.6130  -10.5874    7.8944 C   0  0  0  0  0  0  0  0  0  0  0  0
   13.5965  -11.7359    7.8617 C   0  0  0  0  0  0  0  0  0  0  0  0
   18.2341   -9.0164    2.3466 H   0  0  0  0  0  0  0  0  0  0  0  0
   22.7601   -8.8422    3.9449 H   0  0  0  0  0  0  0  0  0  0  0  0
   21.6177  -10.9429    3.7828 H   0  0  0  0  0  0  0  0  0  0  0  0
   18.3008  -14.0280    4.2121 H   0  0  0  0  0  0  0  0  0  0  0  0
   17.1777  -13.2380    3.3282 H   0  0  0  0  0  0  0  0  0  0  0  0
   18.4733  -10.6031    5.5838 H   0  0  0  0  0  0  0  0  0  0  0  0
   19.7689  -11.5845    5.7411 H   0  0  0  0  0  0  0  0  0  0  0  0
   16.5532  -13.8579    5.7060 H   0  0  0  0  0  0  0  0  0  0  0  0
   17.5719  -12.0064    7.1138 H   0  0  0  0  0  0  0  0  0  0  0  0
   18.5436  -13.2441    6.6770 H   0  0  0  0  0  0  0  0  0  0  0  0
   14.4034  -13.3788    4.7788 H   0  0  0  0  0  0  0  0  0  0  0  0
   13.0500  -11.5979    3.8113 H   0  0  0  0  0  0  0  0  0  0  0  0
   13.8731  -10.5024    4.6997 H   0  0  0  0  0  0  0  0  0  0  0  0
   11.5911  -11.8283    5.4345 H   0  0  0  0  0  0  0  0  0  0  0  0
   13.5786  -13.2605    6.4167 H   0  0  0  0  0  0  0  0  0  0  0  0
   12.1544  -13.1133    7.2018 H   0  0  0  0  0  0  0  0  0  0  0  0
   11.7696  -10.8456    8.3656 H   0  0  0  0  0  0  0  0  0  0  0  0
   13.0093   -9.7831    8.3373 H   0  0  0  0  0  0  0  0  0  0  0  0
   14.5064  -11.4385    7.5722 H   0  0  0  0  0  0  0  0  0  0  0  0
   13.6622  -12.1951    8.7476 H   0  0  0  0  0  0  0  0  0  0  0  0
  1  2  1  0  0  0  0
  2  3  2  0  0  0  0
  2  4  1  0  0  0  0
  3  5  1  0  0  0  0
  3  6  1  0  0  0  0
  4  7  2  0  0  0  0
  6  8  2  0  0  0  0
  7  9  1  0  0  0  0
  9 10  2  0  0  0  0
  9 11  1  0  0  0  0
 11 12  1  0  0  0  0
 11 13  1  0  0  0  0
 12 14  1  0  0  0  0
 13 15  1  0  0  0  0
 14 16  1  0  0  0  0
 16 17  2  0  0  0  0
 16 18  1  0  0  0  0
 18 19  1  0  0  0  0
 19 20  1  0  0  0  0
 20 21  1  0  0  0  0
 20 22  1  0  0  0  0
 21 23  1  0  0  0  0
 22 24  1  0  0  0  0
  7  8  1  0  0  0  0
 14 15  1  0  0  0  0
 23 24  1  0  0  0  0
  4 25  1  0  0  0  0
  6 26  1  0  0  0  0
  8 27  1  0  0  0  0
 12 28  1  0  0  0  0
 12 29  1  0  0  0  0
 13 30  1  0  0  0  0
 13 31  1  0  0  0  0
 14 32  1  0  0  0  0
 15 33  1  0  0  0  0
 15 34  1  0  0  0  0
 18 35  1  0  0  0  0
 19 36  1  0  0  0  0
 19 37  1  0  0  0  0
 20 38  1  0  0  0  0
 22 39  1  0  0  0  0
 22 40  1  0  0  0  0
 23 41  1  0  0  0  0
 23 42  1  0  0  0  0
 24 43  1  0  0  0  0
 24 44  1  0  0  0  0
M  END
> <BIOSOLVEIT.HYDE_ESTIMATED_AFFINITY_LOWER_BOUNDARY [nM]>
3392340.498080

> <BIOSOLVEIT.HYDE_ESTIMATED_AFFINITY_UPPER_BOUNDARY [nM]>
337049085.588600

> <BIOSOLVEIT.HYDE_LIGAND_EFFICIENCY range: ++, +, 0, -, -->
--

> <BIOSOLVEIT.HYDE_LIGAND_LIPOPHILIC_EFFICIENCY range: ++, +, 0, -, -->
--

> <BIOSOLVEIT.INTER_CLASH range: red, yellow, green>
green

> <BIOSOLVEIT.INTRA_CLASH range: red, yellow, green>
green

> <BIOSOLVEIT.LOGP>
2.7507

> <BIOSOLVEIT.MOLECULAR WEIGHT>
371.262

> <BIOSOLVEIT.MOLECULE_CHECKSUM>
LTguMzk1OTM7MC4zNDk4Mw==

> <BIOSOLVEIT.TORSION_QUALITY range: red, yellow, green, not rotatable>
yellow

> <BIOSOLVEIT.TPSA>
58.64

> <BIOSOLVEIT.SEESAR_FAVORITE>
favorite

> <smc_score>
0.688

> <QED_score>
0.886

> <distance>
0.705

> <SimilarityPheSA_1>
0.672

> <Smiles>
O=C(NCC1CCCO1)C1CCN(C(=O)c2ccc(Cl)c(Cl)c2)C1

> <Similarity_SkelSpheres>
0.599

> <Cluster No>
120.0

> <QueryID>
PET-UNK-3c72d439-1

> <SimilarityPheSA>
0.6717

> <Postera series>
3-aminopyridine-like

> <PDB_code>
Mpro-x11810

> <Approach>
DGM_focussed_RL

> <ID>
20210618_243

> <SimilarityPheSA_2>
0.679

> <OPTIBRIUM.logD>
2.23198

> <OPTIBRIUM.BBB category>
-

> <OPTIBRIUM.logP>
2.23198

> <OPTIBRIUM.P-gp category>
yes

> <OPTIBRIUM.logS>
2.43609

> <OPTIBRIUM.HIA category>
+

> <OPTIBRIUM.PPB90 category>
low

> <OPTIBRIUM.2D6 affinity category>
high

> <OPTIBRIUM.hERG pIC50>
4.42225

> <OPTIBRIUM.2C9 pKi>
4.82792

> <OPTIBRIUM.BBB log([brain]:[blood])>
-0.295437

> <OPTIBRIUM.logS @ pH7.4>
2.43609

$$$$
Compound 244_1_3
haSeeSAR  07122114523D 1   1.00000     0.00000     0
SeeSAR 11.0.2 hazemaj
 44 46  0  0  0  0            999 V2000
   19.0060   -7.1622    2.6185 Cl  0  0  0  0  0  0  0  0  0  0  0  0
   20.0828   -8.2331    3.5469 C   0  0  0  0  0  0  0  0  0  0  0  0
   21.3653   -7.8104    3.8799 C   0  0  0  0  0  0  0  0  0  0  0  0
   19.6298   -9.4897    3.9336 C   0  0  0  0  0  0  0  0  0  0  0  0
   21.9220   -6.1980    3.3718 Cl  0  0  0  0  0  0  0  0  0  0  0  0
   22.2147   -8.6392    4.6057 C   0  0  0  0  0  0  0  0  0  0  0  0
   20.4834  -10.3128    4.6597 C   0  0  0  0  0  0  0  0  0  0  0  0
   21.7671   -9.8968    4.9963 C   0  0  0  0  0  0  0  0  0  0  0  0
   20.0272  -11.6256    5.0708 C   0  0  0  0  0  0  0  0  0  0  0  0
   20.4974  -12.6337    4.5436 O   0  0  0  0  0  0  0  0  0  0  0  0
   19.0504  -11.7474    6.0690 N   0  0  0  0  0  0  0  0  0  0  0  0
   18.1880  -12.9089    6.2962 C   0  0  0  0  0  0  0  0  0  0  0  0
   18.7050  -10.7261    7.0625 C   0  0  0  0  0  0  0  0  0  0  0  0
   16.9443  -12.3098    6.9154 C   0  0  1  0  0  0  0  0  0  0  0  0
   17.5702  -11.3249    7.8720 C   0  0  0  0  0  0  0  0  0  0  0  0
   16.0386  -11.6389    5.8970 C   0  0  0  0  0  0  0  0  0  0  0  0
   16.2489  -10.4741    5.5593 O   0  0  0  0  0  0  0  0  0  0  0  0
   15.0237  -12.3067    5.3730 N   0  0  0  0  0  0  0  0  0  0  0  0
   14.1472  -11.6575    4.3876 C   0  0  0  0  0  0  0  0  0  0  0  0
   12.8091  -11.3387    5.0324 C   0  0  2  0  0  0  0  0  0  0  0  0
   12.8608  -10.2350    5.9235 O   0  0  0  0  0  0  0  0  0  0  0  0
   12.3178  -12.4601    5.9214 C   0  0  0  0  0  0  0  0  0  0  0  0
   13.0739  -10.6779    7.2508 C   0  0  0  0  0  0  0  0  0  0  0  0
   13.0700  -12.1947    7.2083 C   0  0  0  0  0  0  0  0  0  0  0  0
   18.7082   -9.7954    3.6942 H   0  0  0  0  0  0  0  0  0  0  0  0
   23.1368   -8.3343    4.8438 H   0  0  0  0  0  0  0  0  0  0  0  0
   22.3680  -10.5016    5.5191 H   0  0  0  0  0  0  0  0  0  0  0  0
   18.6207  -13.5588    6.9210 H   0  0  0  0  0  0  0  0  0  0  0  0
   17.9725  -13.3681    5.4344 H   0  0  0  0  0  0  0  0  0  0  0  0
   18.4079   -9.8846    6.6113 H   0  0  0  0  0  0  0  0  0  0  0  0
   19.4896  -10.5296    7.6506 H   0  0  0  0  0  0  0  0  0  0  0  0
   16.4384  -13.0089    7.4206 H   0  0  0  0  0  0  0  0  0  0  0  0
   16.9132  -10.6213    8.1428 H   0  0  0  0  0  0  0  0  0  0  0  0
   17.9172  -11.7883    8.6873 H   0  0  0  0  0  0  0  0  0  0  0  0
   14.8529  -13.2530    5.6474 H   0  0  0  0  0  0  0  0  0  0  0  0
   14.0053  -12.2721    3.6116 H   0  0  0  0  0  0  0  0  0  0  0  0
   14.5737  -10.8110    4.0687 H   0  0  0  0  0  0  0  0  0  0  0  0
   12.1313  -11.1586    4.3196 H   0  0  0  0  0  0  0  0  0  0  0  0
   12.5527  -13.3546    5.5410 H   0  0  0  0  0  0  0  0  0  0  0  0
   11.3290  -12.4065    6.0609 H   0  0  0  0  0  0  0  0  0  0  0  0
   12.3418  -10.3476    7.8464 H   0  0  0  0  0  0  0  0  0  0  0  0
   13.9542  -10.3446    7.5884 H   0  0  0  0  0  0  0  0  0  0  0  0
   13.9996  -12.5613    7.1701 H   0  0  0  0  0  0  0  0  0  0  0  0
   12.5917  -12.5808    7.9970 H   0  0  0  0  0  0  0  0  0  0  0  0
  1  2  1  0  0  0  0
  2  3  2  0  0  0  0
  2  4  1  0  0  0  0
  3  5  1  0  0  0  0
  3  6  1  0  0  0  0
  4  7  2  0  0  0  0
  6  8  2  0  0  0  0
  7  9  1  0  0  0  0
  9 10  2  0  0  0  0
  9 11  1  0  0  0  0
 11 12  1  0  0  0  0
 11 13  1  0  0  0  0
 12 14  1  0  0  0  0
 13 15  1  0  0  0  0
 14 16  1  0  0  0  0
 16 17  2  0  0  0  0
 16 18  1  0  0  0  0
 18 19  1  0  0  0  0
 19 20  1  0  0  0  0
 20 21  1  0  0  0  0
 20 22  1  0  0  0  0
 21 23  1  0  0  0  0
 22 24  1  0  0  0  0
  7  8  1  0  0  0  0
 14 15  1  0  0  0  0
 23 24  1  0  0  0  0
  4 25  1  0  0  0  0
  6 26  1  0  0  0  0
  8 27  1  0  0  0  0
 12 28  1  0  0  0  0
 12 29  1  0  0  0  0
 13 30  1  0  0  0  0
 13 31  1  0  0  0  0
 14 32  1  0  0  0  0
 15 33  1  0  0  0  0
 15 34  1  0  0  0  0
 18 35  1  0  0  0  0
 19 36  1  0  0  0  0
 19 37  1  0  0  0  0
 20 38  1  0  0  0  0
 22 39  1  0  0  0  0
 22 40  1  0  0  0  0
 23 41  1  0  0  0  0
 23 42  1  0  0  0  0
 24 43  1  0  0  0  0
 24 44  1  0  0  0  0
M  END
> <BIOSOLVEIT.HYDE_ESTIMATED_AFFINITY_LOWER_BOUNDARY [nM]>
76968642.928563

> <BIOSOLVEIT.HYDE_ESTIMATED_AFFINITY_UPPER_BOUNDARY [nM]>
7647289749.584831

> <BIOSOLVEIT.HYDE_LIGAND_EFFICIENCY range: ++, +, 0, -, -->
--

> <BIOSOLVEIT.HYDE_LIGAND_LIPOPHILIC_EFFICIENCY range: ++, +, 0, -, -->
--

> <BIOSOLVEIT.INTER_CLASH range: red, yellow, green>
green

> <BIOSOLVEIT.INTRA_CLASH range: red, yellow, green>
red

> <BIOSOLVEIT.LOGP>
2.7507

> <BIOSOLVEIT.MOLECULAR WEIGHT>
371.262

> <BIOSOLVEIT.MOLECULE_CHECKSUM>
LTAuNjU2OTMxOzAuMDI3MzcyMQ==

> <BIOSOLVEIT.TORSION_QUALITY range: red, yellow, green, not rotatable>
green

> <BIOSOLVEIT.TPSA>
58.64

> <BIOSOLVEIT.SEESAR_FAVORITE>
favorite

> <smc_score>
0.688

> <QED_score>
0.886

> <distance>
0.705

> <SimilarityPheSA_1>
0.672

> <Smiles>
O=C(NCC1CCCO1)C1CCN(C(=O)c2ccc(Cl)c(Cl)c2)C1

> <Similarity_SkelSpheres>
0.599

> <Cluster No>
120.0

> <QueryID>
PET-UNK-3c72d439-1

> <SimilarityPheSA>
0.6717

> <Postera series>
3-aminopyridine-like

> <PDB_code>
Mpro-x11810

> <Approach>
DGM_focussed_RL

> <ID>
20210618_243

> <SimilarityPheSA_2>
0.679

> <OPTIBRIUM.logD>
2.23198

> <OPTIBRIUM.BBB category>
-

> <OPTIBRIUM.logP>
2.23198

> <OPTIBRIUM.P-gp category>
yes

> <OPTIBRIUM.logS>
2.43609

> <OPTIBRIUM.HIA category>
+

> <OPTIBRIUM.PPB90 category>
low

> <OPTIBRIUM.2D6 affinity category>
high

> <OPTIBRIUM.hERG pIC50>
4.42225

> <OPTIBRIUM.2C9 pKi>
4.82792

> <OPTIBRIUM.BBB log([brain]:[blood])>
-0.295437

> <OPTIBRIUM.logS @ pH7.4>
2.43609

$$$$
Compound 285_1_1
haSeeSAR  07122114523D 1   1.00000     0.00000     0
SeeSAR 11.0.2 hazemaj
 53 56  0  0  0  0            999 V2000
   18.8876   -6.3545    2.3026 Cl  0  0  0  0  0  0  0  0  0  0  0  0
   19.6409   -7.7346    3.1354 C   0  0  0  0  0  0  0  0  0  0  0  0
   20.9519   -7.6439    3.5809 C   0  0  0  0  0  0  0  0  0  0  0  0
   18.9009   -8.8908    3.3298 C   0  0  0  0  0  0  0  0  0  0  0  0
   21.8729   -6.1433    3.3270 Cl  0  0  0  0  0  0  0  0  0  0  0  0
   21.5663   -8.7092    4.2227 C   0  0  0  0  0  0  0  0  0  0  0  0
   19.5205   -9.9520    3.9789 C   0  0  0  0  0  0  0  0  0  0  0  0
   20.8256   -9.8677    4.4071 C   0  0  0  0  0  0  0  0  0  0  0  0
   19.0069  -11.3266    4.3554 C   0  0  2  0  0  0  0  0  0  0  0  0
   21.2395  -11.1779    5.0473 C   0  0  0  0  0  0  0  0  0  0  0  0
   17.5541  -11.2845    4.8041 C   0  0  0  0  0  0  0  0  0  0  0  0
   19.9010  -11.7166    5.5093 C   0  0  0  0  0  0  0  0  0  0  0  0
   16.8660  -10.2911    4.5696 O   0  0  0  0  0  0  0  0  0  0  0  0
   17.0300  -12.3156    5.4464 N   0  0  0  0  0  0  0  0  0  0  0  0
   17.0679  -13.6545    4.8416 C   0  0  2  0  0  0  0  0  0  0  0  0
   16.4097  -12.1220    6.7649 C   0  0  0  0  0  0  0  0  0  0  0  0
   16.0670  -13.7867    3.7127 C   0  0  0  0  0  0  0  0  0  0  0  0
   16.5689  -14.7061    5.8039 C   0  0  0  0  0  0  0  0  0  0  0  0
   14.8263  -14.2953    4.3059 N   0  3  1  0  0  0  0  0  0  0  0  0
   15.0609  -14.5461    5.7310 C   0  0  0  0  0  0  0  0  0  0  0  0
   13.7071  -13.3580    4.1188 C   0  0  0  0  0  0  0  0  0  0  0  0
   13.7187  -12.3243    5.2362 C   0  0  1  0  0  0  0  0  0  0  0  0
   13.1593  -10.9808    4.8171 C   0  0  0  0  0  0  0  0  0  0  0  0
   12.7086  -12.6848    6.3004 C   0  0  0  0  0  0  0  0  0  0  0  0
   12.7892  -10.3451    6.0299 O   0  0  0  0  0  0  0  0  0  0  0  0
   12.4825  -11.3498    6.9812 C   0  0  0  0  0  0  0  0  0  0  0  0
   17.9545   -8.9587    3.0140 H   0  0  0  0  0  0  0  0  0  0  0  0
   22.5118   -8.6443    4.5418 H   0  0  0  0  0  0  0  0  0  0  0  0
   19.1200  -11.9640    3.5933 H   0  0  0  0  0  0  0  0  0  0  0  0
   21.8602  -11.0294    5.8172 H   0  0  0  0  0  0  0  0  0  0  0  0
   21.6714  -11.7893    4.3842 H   0  0  0  0  0  0  0  0  0  0  0  0
   19.9286  -12.7087    5.6312 H   0  0  0  0  0  0  0  0  0  0  0  0
   19.6074  -11.2840    6.3617 H   0  0  0  0  0  0  0  0  0  0  0  0
   17.9905  -13.8739    4.5244 H   0  0  0  0  0  0  0  0  0  0  0  0
   16.0674  -12.9982    7.1042 H   0  0  0  0  0  0  0  0  0  0  0  0
   17.0892  -11.7599    7.4030 H   0  0  0  0  0  0  0  0  0  0  0  0
   15.6504  -11.4761    6.6846 H   0  0  0  0  0  0  0  0  0  0  0  0
   16.4074  -14.4269    3.0240 H   0  0  0  0  0  0  0  0  0  0  0  0
   15.9062  -12.8954    3.2887 H   0  0  0  0  0  0  0  0  0  0  0  0
   16.9045  -14.5341    6.7301 H   0  0  0  0  0  0  0  0  0  0  0  0
   16.8479  -15.6211    5.5128 H   0  0  0  0  0  0  0  0  0  0  0  0
   14.7538  -13.7740    6.2875 H   0  0  0  0  0  0  0  0  0  0  0  0
   14.5960  -15.3790    6.0311 H   0  0  0  0  0  0  0  0  0  0  0  0
   12.8435  -13.8617    4.1395 H   0  0  0  0  0  0  0  0  0  0  0  0
   13.8028  -12.8966    3.2367 H   0  0  0  0  0  0  0  0  0  0  0  0
   14.6341  -12.2270    5.6269 H   0  0  0  0  0  0  0  0  0  0  0  0
   12.3622  -11.1008    4.2252 H   0  0  0  0  0  0  0  0  0  0  0  0
   13.8536  -10.4450    4.3367 H   0  0  0  0  0  0  0  0  0  0  0  0
   13.0778  -13.3606    6.9384 H   0  0  0  0  0  0  0  0  0  0  0  0
   11.8636  -13.0349    5.8962 H   0  0  0  0  0  0  0  0  0  0  0  0
   13.0815  -11.2639    7.7772 H   0  0  0  0  0  0  0  0  0  0  0  0
   11.5289  -11.2689    7.2712 H   0  0  0  0  0  0  0  0  0  0  0  0
   14.5935  -15.1617    3.8639 H   0  0  0  0  0  0  0  0  0  0  0  0
  1  2  1  0  0  0  0
  2  3  2  0  0  0  0
  2  4  1  0  0  0  0
  3  5  1  0  0  0  0
  3  6  1  0  0  0  0
  4  7  2  0  0  0  0
  6  8  2  0  0  0  0
  7  9  1  0  0  0  0
  8 10  1  0  0  0  0
  9 11  1  0  0  0  0
  9 12  1  0  0  0  0
 11 13  2  0  0  0  0
 11 14  1  0  0  0  0
 14 15  1  0  0  0  0
 14 16  1  0  0  0  0
 15 17  1  0  0  0  0
 15 18  1  0  0  0  0
 17 19  1  0  0  0  0
 18 20  1  0  0  0  0
 19 21  1  0  0  0  0
 21 22  1  0  0  0  0
 22 23  1  0  0  0  0
 22 24  1  0  0  0  0
 23 25  1  0  0  0  0
 24 26  1  0  0  0  0
  7  8  1  0  0  0  0
 10 12  1  0  0  0  0
 19 20  1  0  0  0  0
 25 26  1  0  0  0  0
  4 27  1  0  0  0  0
  6 28  1  0  0  0  0
  9 29  1  0  0  0  0
 10 30  1  0  0  0  0
 10 31  1  0  0  0  0
 12 32  1  0  0  0  0
 12 33  1  0  0  0  0
 15 34  1  0  0  0  0
 16 35  1  0  0  0  0
 16 36  1  0  0  0  0
 16 37  1  0  0  0  0
 17 38  1  0  0  0  0
 17 39  1  0  0  0  0
 18 40  1  0  0  0  0
 18 41  1  0  0  0  0
 20 42  1  0  0  0  0
 20 43  1  0  0  0  0
 21 44  1  0  0  0  0
 21 45  1  0  0  0  0
 22 46  1  0  0  0  0
 23 47  1  0  0  0  0
 23 48  1  0  0  0  0
 24 49  1  0  0  0  0
 24 50  1  0  0  0  0
 26 51  1  0  0  0  0
 26 52  1  0  0  0  0
 19 53  1  0  0  0  0
M  CHG  1  19   1
M  END
> <BIOSOLVEIT.HYDE_ESTIMATED_AFFINITY_LOWER_BOUNDARY [nM]>
78884555.325453

> <BIOSOLVEIT.HYDE_ESTIMATED_AFFINITY_UPPER_BOUNDARY [nM]>
7837646973.986523

> <BIOSOLVEIT.HYDE_LIGAND_EFFICIENCY range: ++, +, 0, -, -->
--

> <BIOSOLVEIT.HYDE_LIGAND_LIPOPHILIC_EFFICIENCY range: ++, +, 0, -, -->
--

> <BIOSOLVEIT.INTER_CLASH range: red, yellow, green>
green

> <BIOSOLVEIT.INTRA_CLASH range: red, yellow, green>
yellow

> <BIOSOLVEIT.LOGP>
2.1753

> <BIOSOLVEIT.MOLECULAR WEIGHT>
398.351

> <BIOSOLVEIT.MOLECULE_CHECKSUM>
LTAuNTk1OTg7MC4wMjI5MjIz

> <BIOSOLVEIT.TORSION_QUALITY range: red, yellow, green, not rotatable>
yellow

> <BIOSOLVEIT.TPSA>
33.98

> <BIOSOLVEIT.SEESAR_FAVORITE>
favorite

> <smc_score>
0.563

> <QED_score>
0.779

> <distance>
0.756

> <SimilarityPheSA_1>
0.652

> <Smiles>
CN(C(=O)C1CCc2cc(Cl)c(Cl)cc21)C1CCN(CC2CCOC2)C1

> <Similarity_SkelSpheres>
0.582

> <Cluster No>
141.0

> <QueryID>
MAT-POS-bb423b95-1

> <SimilarityPheSA>
0.6519

> <Postera series>
3-aminopyridine-like

> <PDB_code>
Mpro-x11542

> <Approach>
DGM_focussed_RL

> <ID>
20210618_284

> <SimilarityPheSA_2>
0.656

> <OPTIBRIUM.logD>
1.86755

> <OPTIBRIUM.BBB category>
+

> <OPTIBRIUM.logP>
2.65101

> <OPTIBRIUM.P-gp category>
yes

> <OPTIBRIUM.logS>
3.18336

> <OPTIBRIUM.HIA category>
+

> <OPTIBRIUM.PPB90 category>
low

> <OPTIBRIUM.2D6 affinity category>
very high

> <OPTIBRIUM.hERG pIC50>
5.45789

> <OPTIBRIUM.2C9 pKi>
4.84974

> <OPTIBRIUM.BBB log([brain]:[blood])>
-0.327939

> <OPTIBRIUM.logS @ pH7.4>
2.70807

$$$$
Compound 299_1_1
haSeeSAR  07122114523D 1   1.00000     0.00000     0
SeeSAR 11.0.2 hazemaj
 35 36  0  0  0  0            999 V2000
   21.5468   -6.1179    3.1734 Cl  0  0  0  0  0  0  0  0  0  0  0  0
   20.8720   -7.7026    3.6219 C   0  0  0  0  0  0  0  0  0  0  0  0
   19.6076   -8.0652    3.1708 C   0  0  0  0  0  0  0  0  0  0  0  0
   21.6115   -8.5683    4.4206 C   0  0  0  0  0  0  0  0  0  0  0  0
   18.9090   -7.2298    2.4082 F   0  0  0  0  0  0  0  0  0  0  0  0
   19.0654   -9.2998    3.5135 C   0  0  0  0  0  0  0  0  0  0  0  0
   21.0665   -9.8019    4.7598 C   0  0  0  0  0  0  0  0  0  0  0  0
   19.8016  -10.1706    4.3114 C   0  0  0  0  0  0  0  0  0  0  0  0
   22.0218  -10.9025    5.7823 Cl  0  0  0  0  0  0  0  0  0  0  0  0
   19.2240  -11.5225    4.6943 C   0  0  0  0  0  0  0  0  0  0  0  0
   18.6445  -11.4469    6.0974 C   0  0  0  0  0  0  0  0  0  0  0  0
   17.3890  -12.2097    6.1508 N   0  0  0  0  0  0  0  0  0  0  0  0
   16.2665  -11.6681    5.7070 C   0  0  0  0  0  0  0  0  0  0  0  0
   16.2734  -10.5253    5.2493 O   0  0  0  0  0  0  0  0  0  0  0  0
   14.9678  -12.4570    5.7622 C   0  0  1  0  0  0  0  0  0  0  0  0
   14.0992  -11.8596    6.7795 N   0  0  0  0  0  0  0  0  0  0  0  0
   14.2129  -12.2798    4.4562 C   0  0  0  0  0  0  0  0  0  0  0  0
   13.1745  -11.0560    6.1225 C   0  0  0  0  0  0  0  0  0  0  0  0
   14.2090  -12.0651    8.2296 C   0  0  0  0  0  0  0  0  0  0  0  0
   13.2766  -11.1933    4.7377 N   0  0  0  0  0  0  0  0  0  0  0  0
   12.3621  -10.3608    6.7027 O   0  0  0  0  0  0  0  0  0  0  0  0
   22.5206   -8.3079    4.7457 H   0  0  0  0  0  0  0  0  0  0  0  0
   18.1555   -9.5591    3.1896 H   0  0  0  0  0  0  0  0  0  0  0  0
   19.9468  -12.2131    4.6690 H   0  0  0  0  0  0  0  0  0  0  0  0
   18.5022  -11.7716    4.0485 H   0  0  0  0  0  0  0  0  0  0  0  0
   18.4644  -10.4918    6.3327 H   0  0  0  0  0  0  0  0  0  0  0  0
   19.2972  -11.8333    6.7489 H   0  0  0  0  0  0  0  0  0  0  0  0
   17.3833  -13.1380    6.5226 H   0  0  0  0  0  0  0  0  0  0  0  0
   15.1388  -13.4236    5.9537 H   0  0  0  0  0  0  0  0  0  0  0  0
   13.7236  -13.1168    4.2114 H   0  0  0  0  0  0  0  0  0  0  0  0
   14.8365  -12.0295    3.7157 H   0  0  0  0  0  0  0  0  0  0  0  0
   13.4944  -11.5430    8.6953 H   0  0  0  0  0  0  0  0  0  0  0  0
   14.1009  -13.0371    8.4377 H   0  0  0  0  0  0  0  0  0  0  0  0
   15.1065  -11.7548    8.5432 H   0  0  0  0  0  0  0  0  0  0  0  0
   12.7932  -10.6438    4.0562 H   0  0  0  0  0  0  0  0  0  0  0  0
  1  2  1  0  0  0  0
  2  3  2  0  0  0  0
  2  4  1  0  0  0  0
  3  5  1  0  0  0  0
  3  6  1  0  0  0  0
  4  7  2  0  0  0  0
  6  8  2  0  0  0  0
  7  9  1  0  0  0  0
  8 10  1  0  0  0  0
 10 11  1  0  0  0  0
 11 12  1  0  0  0  0
 12 13  1  0  0  0  0
 13 14  2  0  0  0  0
 13 15  1  0  0  0  0
 15 16  1  0  0  0  0
 15 17  1  0  0  0  0
 16 18  1  0  0  0  0
 16 19  1  0  0  0  0
 17 20  1  0  0  0  0
 18 21  2  0  0  0  0
  7  8  1  0  0  0  0
 18 20  1  0  0  0  0
  4 22  1  0  0  0  0
  6 23  1  0  0  0  0
 10 24  1  0  0  0  0
 10 25  1  0  0  0  0
 11 26  1  0  0  0  0
 11 27  1  0  0  0  0
 12 28  1  0  0  0  0
 15 29  1  0  0  0  0
 17 30  1  0  0  0  0
 17 31  1  0  0  0  0
 19 32  1  0  0  0  0
 19 33  1  0  0  0  0
 19 34  1  0  0  0  0
 20 35  1  0  0  0  0
M  END
> <BIOSOLVEIT.HYDE_ESTIMATED_AFFINITY_LOWER_BOUNDARY [nM]>
155914511.712085

> <BIOSOLVEIT.HYDE_ESTIMATED_AFFINITY_UPPER_BOUNDARY [nM]>
15491028578.144365

> <BIOSOLVEIT.HYDE_LIGAND_EFFICIENCY range: ++, +, 0, -, -->
--

> <BIOSOLVEIT.HYDE_LIGAND_LIPOPHILIC_EFFICIENCY range: ++, +, 0, -, -->
--

> <BIOSOLVEIT.INTER_CLASH range: red, yellow, green>
green

> <BIOSOLVEIT.INTRA_CLASH range: red, yellow, green>
green

> <BIOSOLVEIT.LOGP>
1.8148

> <BIOSOLVEIT.MOLECULAR WEIGHT>
334.177

> <BIOSOLVEIT.MOLECULE_CHECKSUM>
MS4wOTI5OTsw

> <BIOSOLVEIT.TORSION_QUALITY range: red, yellow, green, not rotatable>
yellow

> <BIOSOLVEIT.TPSA>
61.44

> <BIOSOLVEIT.SEESAR_FAVORITE>
favorite

> <smc_score>
0.75

> <QED_score>
0.825

> <distance>
0.757

> <SimilarityPheSA_1>
0.669

> <Smiles>
CN1C(=O)NCC1C(=O)NCCc1cc(F)c(Cl)cc1Cl

> <Similarity_SkelSpheres>
0.578

> <Cluster No>
150.0

> <QueryID>
JAN-GHE-5a013bed-2

> <SimilarityPheSA>
0.6691

> <Postera series>
3-aminopyridine-like

> <PDB_code>
Mpro-x10466

> <Approach>
DGM_focussed_RL

> <ID>
20210618_298

> <SimilarityPheSA_2>
0.665

> <OPTIBRIUM.logD>
2.21548

> <OPTIBRIUM.BBB category>
-

> <OPTIBRIUM.logP>
2.21548

> <OPTIBRIUM.P-gp category>
no

> <OPTIBRIUM.logS>
1.71428

> <OPTIBRIUM.HIA category>
+

> <OPTIBRIUM.PPB90 category>
low

> <OPTIBRIUM.2D6 affinity category>
high

> <OPTIBRIUM.hERG pIC50>
3.93226

> <OPTIBRIUM.2C9 pKi>
4.20864

> <OPTIBRIUM.BBB log([brain]:[blood])>
-0.363071

> <OPTIBRIUM.logS @ pH7.4>
1.71428

$$$$
Compound 299_1_2
haSeeSAR  07122114523D 1   1.00000     0.00000     0
SeeSAR 11.0.2 hazemaj
 35 36  0  0  0  0            999 V2000
   21.5506   -6.1349    3.1727 Cl  0  0  0  0  0  0  0  0  0  0  0  0
   20.8709   -7.7169    3.6232 C   0  0  0  0  0  0  0  0  0  0  0  0
   19.6055   -8.0762    3.1726 C   0  0  0  0  0  0  0  0  0  0  0  0
   21.6079   -8.5839    4.4229 C   0  0  0  0  0  0  0  0  0  0  0  0
   18.9093   -7.2396    2.4091 F   0  0  0  0  0  0  0  0  0  0  0  0
   19.0595   -9.3086    3.5169 C   0  0  0  0  0  0  0  0  0  0  0  0
   21.0590   -9.8154    4.7637 C   0  0  0  0  0  0  0  0  0  0  0  0
   19.7930  -10.1807    4.3159 C   0  0  0  0  0  0  0  0  0  0  0  0
   22.0110  -10.9175    5.7875 Cl  0  0  0  0  0  0  0  0  0  0  0  0
   19.2112  -11.5304    4.7006 C   0  0  0  0  0  0  0  0  0  0  0  0
   18.6371  -11.4527    6.1058 C   0  0  0  0  0  0  0  0  0  0  0  0
   17.3783  -12.2099    6.1633 N   0  0  0  0  0  0  0  0  0  0  0  0
   16.2573  -11.6641    5.7209 C   0  0  0  0  0  0  0  0  0  0  0  0
   16.2682  -10.5223    5.2611 O   0  0  0  0  0  0  0  0  0  0  0  0
   14.9553  -12.4473    5.7805 C   0  0  1  0  0  0  0  0  0  0  0  0
   14.0975  -11.8532    6.8090 N   0  0  0  0  0  0  0  0  0  0  0  0
   14.1910  -12.2567    4.4818 C   0  0  0  0  0  0  0  0  0  0  0  0
   13.1716  -11.0404    6.1653 C   0  0  0  0  0  0  0  0  0  0  0  0
   14.2176  -12.0699    8.2566 C   0  0  0  0  0  0  0  0  0  0  0  0
   13.2622  -11.1679    4.7787 N   0  0  0  0  0  0  0  0  0  0  0  0
   12.3671  -10.3456    6.7568 O   0  0  0  0  0  0  0  0  0  0  0  0
   22.5178   -8.3258    4.7477 H   0  0  0  0  0  0  0  0  0  0  0  0
   18.1487   -9.5654    3.1935 H   0  0  0  0  0  0  0  0  0  0  0  0
   19.9311  -12.2239    4.6725 H   0  0  0  0  0  0  0  0  0  0  0  0
   18.4861  -11.7764    4.0574 H   0  0  0  0  0  0  0  0  0  0  0  0
   18.4621  -10.4969    6.3421 H   0  0  0  0  0  0  0  0  0  0  0  0
   19.2904  -11.8424    6.7549 H   0  0  0  0  0  0  0  0  0  0  0  0
   17.3694  -13.1374    6.5369 H   0  0  0  0  0  0  0  0  0  0  0  0
   15.1230  -13.4160    5.9635 H   0  0  0  0  0  0  0  0  0  0  0  0
   13.6958  -13.0895    4.2347 H   0  0  0  0  0  0  0  0  0  0  0  0
   14.8100  -12.0038    3.7383 H   0  0  0  0  0  0  0  0  0  0  0  0
   13.5092  -11.5480    8.7318 H   0  0  0  0  0  0  0  0  0  0  0  0
   14.1064  -13.0430    8.4583 H   0  0  0  0  0  0  0  0  0  0  0  0
   15.1190  -11.7664    8.5655 H   0  0  0  0  0  0  0  0  0  0  0  0
   12.7762  -10.6109    4.1051 H   0  0  0  0  0  0  0  0  0  0  0  0
  1  2  1  0  0  0  0
  2  3  2  0  0  0  0
  2  4  1  0  0  0  0
  3  5  1  0  0  0  0
  3  6  1  0  0  0  0
  4  7  2  0  0  0  0
  6  8  2  0  0  0  0
  7  9  1  0  0  0  0
  8 10  1  0  0  0  0
 10 11  1  0  0  0  0
 11 12  1  0  0  0  0
 12 13  1  0  0  0  0
 13 14  2  0  0  0  0
 13 15  1  0  0  0  0
 15 16  1  0  0  0  0
 15 17  1  0  0  0  0
 16 18  1  0  0  0  0
 16 19  1  0  0  0  0
 17 20  1  0  0  0  0
 18 21  2  0  0  0  0
  7  8  1  0  0  0  0
 18 20  1  0  0  0  0
  4 22  1  0  0  0  0
  6 23  1  0  0  0  0
 10 24  1  0  0  0  0
 10 25  1  0  0  0  0
 11 26  1  0  0  0  0
 11 27  1  0  0  0  0
 12 28  1  0  0  0  0
 15 29  1  0  0  0  0
 17 30  1  0  0  0  0
 17 31  1  0  0  0  0
 19 32  1  0  0  0  0
 19 33  1  0  0  0  0
 19 34  1  0  0  0  0
 20 35  1  0  0  0  0
M  END
> <BIOSOLVEIT.HYDE_ESTIMATED_AFFINITY_LOWER_BOUNDARY [nM]>
155633672.015859

> <BIOSOLVEIT.HYDE_ESTIMATED_AFFINITY_UPPER_BOUNDARY [nM]>
15463125493.868576

> <BIOSOLVEIT.HYDE_LIGAND_EFFICIENCY range: ++, +, 0, -, -->
--

> <BIOSOLVEIT.HYDE_LIGAND_LIPOPHILIC_EFFICIENCY range: ++, +, 0, -, -->
--

> <BIOSOLVEIT.INTER_CLASH range: red, yellow, green>
green

> <BIOSOLVEIT.INTRA_CLASH range: red, yellow, green>
green

> <BIOSOLVEIT.LOGP>
1.8148

> <BIOSOLVEIT.MOLECULAR WEIGHT>
334.177

> <BIOSOLVEIT.MOLECULE_CHECKSUM>
MS4wODg1Mjsw

> <BIOSOLVEIT.TORSION_QUALITY range: red, yellow, green, not rotatable>
yellow

> <BIOSOLVEIT.TPSA>
61.44

> <BIOSOLVEIT.SEESAR_FAVORITE>
favorite

> <smc_score>
0.75

> <QED_score>
0.825

> <distance>
0.757

> <SimilarityPheSA_1>
0.669

> <Smiles>
CN1C(=O)NCC1C(=O)NCCc1cc(F)c(Cl)cc1Cl

> <Similarity_SkelSpheres>
0.578

> <Cluster No>
150.0

> <QueryID>
JAN-GHE-5a013bed-2

> <SimilarityPheSA>
0.6691

> <Postera series>
3-aminopyridine-like

> <PDB_code>
Mpro-x10466

> <Approach>
DGM_focussed_RL

> <ID>
20210618_298

> <SimilarityPheSA_2>
0.665

> <OPTIBRIUM.logD>
2.21548

> <OPTIBRIUM.BBB category>
-

> <OPTIBRIUM.logP>
2.21548

> <OPTIBRIUM.P-gp category>
no

> <OPTIBRIUM.logS>
1.71428

> <OPTIBRIUM.HIA category>
+

> <OPTIBRIUM.PPB90 category>
low

> <OPTIBRIUM.2D6 affinity category>
high

> <OPTIBRIUM.hERG pIC50>
3.93226

> <OPTIBRIUM.2C9 pKi>
4.20864

> <OPTIBRIUM.BBB log([brain]:[blood])>
-0.363071

> <OPTIBRIUM.logS @ pH7.4>
1.71428

$$$$
Compound 299_1_3
haSeeSAR  07122114523D 1   1.00000     0.00000     0
SeeSAR 11.0.2 hazemaj
 35 36  0  0  0  0            999 V2000
   21.5468   -6.1177    3.1733 Cl  0  0  0  0  0  0  0  0  0  0  0  0
   20.8720   -7.7025    3.6217 C   0  0  0  0  0  0  0  0  0  0  0  0
   19.6076   -8.0651    3.1707 C   0  0  0  0  0  0  0  0  0  0  0  0
   21.6117   -8.5683    4.4203 C   0  0  0  0  0  0  0  0  0  0  0  0
   18.9089   -7.2296    2.4082 F   0  0  0  0  0  0  0  0  0  0  0  0
   19.0654   -9.2996    3.5134 C   0  0  0  0  0  0  0  0  0  0  0  0
   21.0667   -9.8019    4.7594 C   0  0  0  0  0  0  0  0  0  0  0  0
   19.8016  -10.1705    4.3111 C   0  0  0  0  0  0  0  0  0  0  0  0
   22.0220  -10.9025    5.7817 Cl  0  0  0  0  0  0  0  0  0  0  0  0
   19.2241  -11.5225    4.6940 C   0  0  0  0  0  0  0  0  0  0  0  0
   18.6445  -11.4468    6.0972 C   0  0  0  0  0  0  0  0  0  0  0  0
   17.3891  -12.2097    6.1506 N   0  0  0  0  0  0  0  0  0  0  0  0
   16.2666  -11.6680    5.7068 C   0  0  0  0  0  0  0  0  0  0  0  0
   16.2734  -10.5253    5.2492 O   0  0  0  0  0  0  0  0  0  0  0  0
   14.9679  -12.4571    5.7621 C   0  0  1  0  0  0  0  0  0  0  0  0
   14.0993  -11.8596    6.7794 N   0  0  0  0  0  0  0  0  0  0  0  0
   14.2129  -12.2799    4.4561 C   0  0  0  0  0  0  0  0  0  0  0  0
   13.1745  -11.0561    6.1224 C   0  0  0  0  0  0  0  0  0  0  0  0
   14.2092  -12.0650    8.2295 C   0  0  0  0  0  0  0  0  0  0  0  0
   13.2767  -11.1934    4.7375 N   0  0  0  0  0  0  0  0  0  0  0  0
   12.3622  -10.3609    6.7026 O   0  0  0  0  0  0  0  0  0  0  0  0
   22.5207   -8.3079    4.7454 H   0  0  0  0  0  0  0  0  0  0  0  0
   18.1554   -9.5589    3.1896 H   0  0  0  0  0  0  0  0  0  0  0  0
   19.9469  -12.2130    4.6686 H   0  0  0  0  0  0  0  0  0  0  0  0
   18.5023  -11.7716    4.0482 H   0  0  0  0  0  0  0  0  0  0  0  0
   18.4645  -10.4917    6.3324 H   0  0  0  0  0  0  0  0  0  0  0  0
   19.2973  -11.8333    6.7486 H   0  0  0  0  0  0  0  0  0  0  0  0
   17.3835  -13.1380    6.5223 H   0  0  0  0  0  0  0  0  0  0  0  0
   15.1389  -13.4236    5.9537 H   0  0  0  0  0  0  0  0  0  0  0  0
   13.7236  -13.1170    4.2113 H   0  0  0  0  0  0  0  0  0  0  0  0
   14.8365  -12.0296    3.7156 H   0  0  0  0  0  0  0  0  0  0  0  0
   13.4946  -11.5429    8.6951 H   0  0  0  0  0  0  0  0  0  0  0  0
   14.1011  -13.0371    8.4377 H   0  0  0  0  0  0  0  0  0  0  0  0
   15.1066  -11.7548    8.5431 H   0  0  0  0  0  0  0  0  0  0  0  0
   12.7933  -10.6439    4.0561 H   0  0  0  0  0  0  0  0  0  0  0  0
  1  2  1  0  0  0  0
  2  3  2  0  0  0  0
  2  4  1  0  0  0  0
  3  5  1  0  0  0  0
  3  6  1  0  0  0  0
  4  7  2  0  0  0  0
  6  8  2  0  0  0  0
  7  9  1  0  0  0  0
  8 10  1  0  0  0  0
 10 11  1  0  0  0  0
 11 12  1  0  0  0  0
 12 13  1  0  0  0  0
 13 14  2  0  0  0  0
 13 15  1  0  0  0  0
 15 16  1  0  0  0  0
 15 17  1  0  0  0  0
 16 18  1  0  0  0  0
 16 19  1  0  0  0  0
 17 20  1  0  0  0  0
 18 21  2  0  0  0  0
  7  8  1  0  0  0  0
 18 20  1  0  0  0  0
  4 22  1  0  0  0  0
  6 23  1  0  0  0  0
 10 24  1  0  0  0  0
 10 25  1  0  0  0  0
 11 26  1  0  0  0  0
 11 27  1  0  0  0  0
 12 28  1  0  0  0  0
 15 29  1  0  0  0  0
 17 30  1  0  0  0  0
 17 31  1  0  0  0  0
 19 32  1  0  0  0  0
 19 33  1  0  0  0  0
 19 34  1  0  0  0  0
 20 35  1  0  0  0  0
M  END
> <BIOSOLVEIT.HYDE_ESTIMATED_AFFINITY_LOWER_BOUNDARY [nM]>
155945406.091650

> <BIOSOLVEIT.HYDE_ESTIMATED_AFFINITY_UPPER_BOUNDARY [nM]>
15494098117.416206

> <BIOSOLVEIT.HYDE_LIGAND_EFFICIENCY range: ++, +, 0, -, -->
--

> <BIOSOLVEIT.HYDE_LIGAND_LIPOPHILIC_EFFICIENCY range: ++, +, 0, -, -->
--

> <BIOSOLVEIT.INTER_CLASH range: red, yellow, green>
green

> <BIOSOLVEIT.INTRA_CLASH range: red, yellow, green>
green

> <BIOSOLVEIT.LOGP>
1.8148

> <BIOSOLVEIT.MOLECULAR WEIGHT>
334.177

> <BIOSOLVEIT.MOLECULE_CHECKSUM>
MS4wOTM0ODsw

> <BIOSOLVEIT.TORSION_QUALITY range: red, yellow, green, not rotatable>
yellow

> <BIOSOLVEIT.TPSA>
61.44

> <BIOSOLVEIT.SEESAR_FAVORITE>
favorite

> <smc_score>
0.75

> <QED_score>
0.825

> <distance>
0.757

> <SimilarityPheSA_1>
0.669

> <Smiles>
CN1C(=O)NCC1C(=O)NCCc1cc(F)c(Cl)cc1Cl

> <Similarity_SkelSpheres>
0.578

> <Cluster No>
150.0

> <QueryID>
JAN-GHE-5a013bed-2

> <SimilarityPheSA>
0.6691

> <Postera series>
3-aminopyridine-like

> <PDB_code>
Mpro-x10466

> <Approach>
DGM_focussed_RL

> <ID>
20210618_298

> <SimilarityPheSA_2>
0.665

> <OPTIBRIUM.logD>
2.21548

> <OPTIBRIUM.BBB category>
-

> <OPTIBRIUM.logP>
2.21548

> <OPTIBRIUM.P-gp category>
no

> <OPTIBRIUM.logS>
1.71428

> <OPTIBRIUM.HIA category>
+

> <OPTIBRIUM.PPB90 category>
low

> <OPTIBRIUM.2D6 affinity category>
high

> <OPTIBRIUM.hERG pIC50>
3.93226

> <OPTIBRIUM.2C9 pKi>
4.20864

> <OPTIBRIUM.BBB log([brain]:[blood])>
-0.363071

> <OPTIBRIUM.logS @ pH7.4>
1.71428

$$$$
Compound 299_1_4
haSeeSAR  07122114523D 1   1.00000     0.00000     0
SeeSAR 11.0.2 hazemaj
 35 36  0  0  0  0            999 V2000
   21.5630   -6.7718    3.4000 Cl  0  0  0  0  0  0  0  0  0  0  0  0
   20.7401   -8.3156    3.7273 C   0  0  0  0  0  0  0  0  0  0  0  0
   19.4681   -8.5406    3.2123 C   0  0  0  0  0  0  0  0  0  0  0  0
   21.3723   -9.2870    4.4959 C   0  0  0  0  0  0  0  0  0  0  0  0
   18.8726   -7.6050    2.4793 F   0  0  0  0  0  0  0  0  0  0  0  0
   18.8109   -9.7415    3.4601 C   0  0  0  0  0  0  0  0  0  0  0  0
   20.7124  -10.4865    4.7401 C   0  0  0  0  0  0  0  0  0  0  0  0
   19.4394  -10.7177    4.2275 C   0  0  0  0  0  0  0  0  0  0  0  0
   21.5311  -11.7233    5.7249 Cl  0  0  0  0  0  0  0  0  0  0  0  0
   18.7354  -12.0346    4.5070 C   0  0  0  0  0  0  0  0  0  0  0  0
   18.3480  -12.1005    5.9754 C   0  0  0  0  0  0  0  0  0  0  0  0
   16.9289  -12.4656    6.0919 N   0  0  0  0  0  0  0  0  0  0  0  0
   15.9916  -11.5700    5.8284 C   0  0  0  0  0  0  0  0  0  0  0  0
   16.3078  -10.4307    5.4855 O   0  0  0  0  0  0  0  0  0  0  0  0
   14.5237  -11.9478    5.9489 C   0  0  1  0  0  0  0  0  0  0  0  0
   13.9731  -11.6240    7.2641 N   0  0  0  0  0  0  0  0  0  0  0  0
   13.6474  -11.1934    4.9677 C   0  0  0  0  0  0  0  0  0  0  0  0
   12.8114  -10.8725    7.1115 C   0  0  0  0  0  0  0  0  0  0  0  0
   14.5478  -12.0464    8.5520 C   0  0  0  0  0  0  0  0  0  0  0  0
   12.5646  -10.6092    5.7614 N   0  0  0  0  0  0  0  0  0  0  0  0
   12.1231  -10.4854    8.0422 O   0  0  0  0  0  0  0  0  0  0  0  0
   22.2868   -9.1256    4.8670 H   0  0  0  0  0  0  0  0  0  0  0  0
   17.8956   -9.9017    3.0903 H   0  0  0  0  0  0  0  0  0  0  0  0
   19.3493  -12.7935    4.2898 H   0  0  0  0  0  0  0  0  0  0  0  0
   17.9127  -12.0992    3.9420 H   0  0  0  0  0  0  0  0  0  0  0  0
   18.4985  -11.2077    6.4001 H   0  0  0  0  0  0  0  0  0  0  0  0
   18.9082  -12.7881    6.4373 H   0  0  0  0  0  0  0  0  0  0  0  0
   16.6720  -13.3911    6.3705 H   0  0  0  0  0  0  0  0  0  0  0  0
   14.4249  -12.9295    5.7866 H   0  0  0  0  0  0  0  0  0  0  0  0
   13.2767  -11.8186    4.2810 H   0  0  0  0  0  0  0  0  0  0  0  0
   14.1732  -10.4738    4.5142 H   0  0  0  0  0  0  0  0  0  0  0  0
   13.9838  -11.6956    9.2997 H   0  0  0  0  0  0  0  0  0  0  0  0
   14.5734  -13.0451    8.5941 H   0  0  0  0  0  0  0  0  0  0  0  0
   15.4764  -11.6852    8.6372 H   0  0  0  0  0  0  0  0  0  0  0  0
   11.7803  -10.1063    5.3984 H   0  0  0  0  0  0  0  0  0  0  0  0
  1  2  1  0  0  0  0
  2  3  2  0  0  0  0
  2  4  1  0  0  0  0
  3  5  1  0  0  0  0
  3  6  1  0  0  0  0
  4  7  2  0  0  0  0
  6  8  2  0  0  0  0
  7  9  1  0  0  0  0
  8 10  1  0  0  0  0
 10 11  1  0  0  0  0
 11 12  1  0  0  0  0
 12 13  1  0  0  0  0
 13 14  2  0  0  0  0
 13 15  1  0  0  0  0
 15 16  1  0  0  0  0
 15 17  1  0  0  0  0
 16 18  1  0  0  0  0
 16 19  1  0  0  0  0
 17 20  1  0  0  0  0
 18 21  2  0  0  0  0
  7  8  1  0  0  0  0
 18 20  1  0  0  0  0
  4 22  1  0  0  0  0
  6 23  1  0  0  0  0
 10 24  1  0  0  0  0
 10 25  1  0  0  0  0
 11 26  1  0  0  0  0
 11 27  1  0  0  0  0
 12 28  1  0  0  0  0
 15 29  1  0  0  0  0
 17 30  1  0  0  0  0
 17 31  1  0  0  0  0
 19 32  1  0  0  0  0
 19 33  1  0  0  0  0
 19 34  1  0  0  0  0
 20 35  1  0  0  0  0
M  END
> <BIOSOLVEIT.HYDE_ESTIMATED_AFFINITY_LOWER_BOUNDARY [nM]>
257425398.584080

> <BIOSOLVEIT.HYDE_ESTIMATED_AFFINITY_UPPER_BOUNDARY [nM]>
25576735368.739147

> <BIOSOLVEIT.HYDE_LIGAND_EFFICIENCY range: ++, +, 0, -, -->
--

> <BIOSOLVEIT.HYDE_LIGAND_LIPOPHILIC_EFFICIENCY range: ++, +, 0, -, -->
--

> <BIOSOLVEIT.INTER_CLASH range: red, yellow, green>
green

> <BIOSOLVEIT.INTRA_CLASH range: red, yellow, green>
green

> <BIOSOLVEIT.LOGP>
1.8148

> <BIOSOLVEIT.MOLECULAR WEIGHT>
334.177

> <BIOSOLVEIT.MOLECULE_CHECKSUM>
Mi4zMzU5OTsw

> <BIOSOLVEIT.TORSION_QUALITY range: red, yellow, green, not rotatable>
yellow

> <BIOSOLVEIT.TPSA>
61.44

> <BIOSOLVEIT.SEESAR_FAVORITE>
favorite

> <smc_score>
0.75

> <QED_score>
0.825

> <distance>
0.757

> <SimilarityPheSA_1>
0.669

> <Smiles>
CN1C(=O)NCC1C(=O)NCCc1cc(F)c(Cl)cc1Cl

> <Similarity_SkelSpheres>
0.578

> <Cluster No>
150.0

> <QueryID>
JAN-GHE-5a013bed-2

> <SimilarityPheSA>
0.6691

> <Postera series>
3-aminopyridine-like

> <PDB_code>
Mpro-x10466

> <Approach>
DGM_focussed_RL

> <ID>
20210618_298

> <SimilarityPheSA_2>
0.665

> <OPTIBRIUM.logD>
2.21548

> <OPTIBRIUM.BBB category>
-

> <OPTIBRIUM.logP>
2.21548

> <OPTIBRIUM.P-gp category>
no

> <OPTIBRIUM.logS>
1.71428

> <OPTIBRIUM.HIA category>
+

> <OPTIBRIUM.PPB90 category>
low

> <OPTIBRIUM.2D6 affinity category>
high

> <OPTIBRIUM.hERG pIC50>
3.93226

> <OPTIBRIUM.2C9 pKi>
4.20864

> <OPTIBRIUM.BBB log([brain]:[blood])>
-0.363071

> <OPTIBRIUM.logS @ pH7.4>
1.71428

$$$$
Compound 377_1_02
haSeeSAR  07122114523D 1   1.00000     0.00000     0
SeeSAR 11.0.2 hazemaj
 46 49  0  0  0  0            999 V2000
   20.6940  -16.7367    6.4638 Cl  0  0  0  0  0  0  0  0  0  0  0  0
   20.1144  -15.0567    6.5801 C   0  0  0  0  0  0  0  0  0  0  0  0
   20.0582  -14.2488    5.4488 C   0  0  0  0  0  0  0  0  0  0  0  0
   19.7179  -14.5394    7.8125 C   0  0  0  0  0  0  0  0  0  0  0  0
   20.4483  -14.7708    4.2645 O   0  0  0  0  0  0  0  0  0  0  0  0
   19.6076  -12.9346    5.5608 C   0  0  0  0  0  0  0  0  0  0  0  0
   19.7956  -15.5805    9.2546 Cl  0  0  0  0  0  0  0  0  0  0  0  0
   19.2718  -13.2212    7.8810 C   0  0  0  0  0  0  0  0  0  0  0  0
   19.5896  -15.6571    3.5618 C   0  0  0  0  0  0  0  0  0  0  0  0
   19.2068  -12.3897    6.7632 C   0  0  0  0  0  0  0  0  0  0  0  0
   19.4740  -11.8973    4.4629 C   0  0  1  0  0  0  0  0  0  0  0  0
   18.8550  -11.1056    6.5387 O   0  0  0  0  0  0  0  0  0  0  0  0
   18.5581  -10.9169    5.1637 C   0  0  2  0  0  0  0  0  0  0  0  0
   20.8006  -11.2001    4.1860 C   0  0  0  0  0  0  0  0  0  0  0  0
   17.0906  -11.1836    4.8736 C   0  0  0  0  0  0  0  0  0  0  0  0
   16.3498  -10.2569    4.5453 O   0  0  0  0  0  0  0  0  0  0  0  0
   16.6090  -12.4117    4.9740 N   0  0  0  0  0  0  0  0  0  0  0  0
   15.1893  -12.6696    4.6933 C   0  0  0  0  0  0  0  0  0  0  0  0
   14.3332  -12.0184    5.7693 C   0  0  0  0  0  0  0  0  0  0  0  0
   14.6441  -12.0826    7.1271 C   0  0  0  0  0  0  0  0  0  0  0  0
   13.1915  -11.3306    5.3698 C   0  0  0  0  0  0  0  0  0  0  0  0
   13.8099  -11.4609    8.0509 C   0  0  0  0  0  0  0  0  0  0  0  0
   15.7698  -12.7534    7.6009 C   0  0  0  0  0  0  0  0  0  0  0  0
   12.4018  -10.7384    6.2780 N   0  0  0  0  0  0  0  0  0  0  0  0
   12.6831  -10.7886    7.5885 C   0  0  0  0  0  0  0  0  0  0  0  0
   14.0968  -11.5090    9.4110 C   0  0  0  0  0  0  0  0  0  0  0  0
   16.0756  -12.8144    8.9563 C   0  0  0  0  0  0  0  0  0  0  0  0
   15.2266  -12.1842    9.8603 C   0  0  0  0  0  0  0  0  0  0  0  0
   18.9869  -12.8565    8.7675 H   0  0  0  0  0  0  0  0  0  0  0  0
   20.0313  -15.9458    2.7125 H   0  0  0  0  0  0  0  0  0  0  0  0
   19.4017  -16.4589    4.1291 H   0  0  0  0  0  0  0  0  0  0  0  0
   18.7309  -15.1906    3.3492 H   0  0  0  0  0  0  0  0  0  0  0  0
   19.0628  -12.2740    3.6329 H   0  0  0  0  0  0  0  0  0  0  0  0
   18.7919   -9.9831    4.8927 H   0  0  0  0  0  0  0  0  0  0  0  0
   20.6768  -10.5247    3.4591 H   0  0  0  0  0  0  0  0  0  0  0  0
   21.1160  -10.7417    5.0169 H   0  0  0  0  0  0  0  0  0  0  0  0
   21.4794  -11.8766    3.9003 H   0  0  0  0  0  0  0  0  0  0  0  0
   17.2107  -13.1644    5.2408 H   0  0  0  0  0  0  0  0  0  0  0  0
   15.0244  -13.6559    4.6878 H   0  0  0  0  0  0  0  0  0  0  0  0
   14.9511  -12.2869    3.8007 H   0  0  0  0  0  0  0  0  0  0  0  0
   12.9582  -11.2776    4.3988 H   0  0  0  0  0  0  0  0  0  0  0  0
   16.3763  -13.2049    6.9465 H   0  0  0  0  0  0  0  0  0  0  0  0
   12.0751  -10.3370    8.2414 H   0  0  0  0  0  0  0  0  0  0  0  0
   13.4905  -11.0578   10.0660 H   0  0  0  0  0  0  0  0  0  0  0  0
   16.8891  -13.3012    9.2745 H   0  0  0  0  0  0  0  0  0  0  0  0
   15.4298  -12.2169   10.8389 H   0  0  0  0  0  0  0  0  0  0  0  0
  1  2  1  0  0  0  0
  2  3  2  0  0  0  0
  2  4  1  0  0  0  0
  3  5  1  0  0  0  0
  3  6  1  0  0  0  0
  4  7  1  0  0  0  0
  4  8  2  0  0  0  0
  5  9  1  0  0  0  0
  6 10  2  0  0  0  0
  6 11  1  0  0  0  0
 10 12  1  0  0  0  0
 11 13  1  0  0  0  0
 11 14  1  0  0  0  0
 13 15  1  0  0  0  0
 15 16  2  0  0  0  0
 15 17  1  0  0  0  0
 17 18  1  0  0  0  0
 18 19  1  0  0  0  0
 19 20  1  0  0  0  0
 19 21  2  0  0  0  0
 20 22  1  0  0  0  0
 20 23  2  0  0  0  0
 21 24  1  0  0  0  0
 22 25  1  0  0  0  0
 22 26  2  0  0  0  0
 23 27  1  0  0  0  0
 26 28  1  0  0  0  0
  8 10  1  0  0  0  0
 12 13  1  0  0  0  0
 24 25  2  0  0  0  0
 27 28  2  0  0  0  0
  8 29  1  0  0  0  0
  9 30  1  0  0  0  0
  9 31  1  0  0  0  0
  9 32  1  0  0  0  0
 11 33  1  0  0  0  0
 13 34  1  0  0  0  0
 14 35  1  0  0  0  0
 14 36  1  0  0  0  0
 14 37  1  0  0  0  0
 17 38  1  0  0  0  0
 18 39  1  0  0  0  0
 18 40  1  0  0  0  0
 21 41  1  0  0  0  0
 23 42  1  0  0  0  0
 25 43  1  0  0  0  0
 26 44  1  0  0  0  0
 27 45  1  0  0  0  0
 28 46  1  0  0  0  0
M  END
> <BIOSOLVEIT.HYDE_ESTIMATED_AFFINITY_LOWER_BOUNDARY [nM]>
28036967.421261

> <BIOSOLVEIT.HYDE_ESTIMATED_AFFINITY_UPPER_BOUNDARY [nM]>
2785638480.972769

> <BIOSOLVEIT.HYDE_LIGAND_EFFICIENCY range: ++, +, 0, -, -->
--

> <BIOSOLVEIT.HYDE_LIGAND_LIPOPHILIC_EFFICIENCY range: ++, +, 0, -, -->
--

> <BIOSOLVEIT.INTER_CLASH range: red, yellow, green>
green

> <BIOSOLVEIT.INTRA_CLASH range: red, yellow, green>
yellow

> <BIOSOLVEIT.LOGP>
4.7311

> <BIOSOLVEIT.MOLECULAR WEIGHT>
417.29

> <BIOSOLVEIT.MOLECULE_CHECKSUM>
LTMuMTYwMzc7MC4xMTI4Nw==

> <BIOSOLVEIT.TORSION_QUALITY range: red, yellow, green, not rotatable>
green

> <BIOSOLVEIT.TPSA>
60.45

> <BIOSOLVEIT.SEESAR_FAVORITE>
favorite

> <smc_score>
0.813

> <QED_score>
0.667

> <distance>
0.595

> <SimilarityPheSA_1>
0.641

> <Smiles>
COc1c(Cl)c(Cl)cc2c1C(C)C(C(=O)NCc1cncc3ccccc13)O2

> <Similarity_SkelSpheres>
0.749

> <Cluster No>
191.0

> <QueryID>
JAN-GHE-5a013bed-2

> <SimilarityPheSA>
0.6409

> <Postera series>
3-aminopyridine-like

> <PDB_code>
Mpro-x10466

> <Approach>
DGM_focussed_RL

> <ID>
20210618_376

> <SimilarityPheSA_2>
0.72

> <OPTIBRIUM.logD>
4.49267

> <OPTIBRIUM.BBB category>
-

> <OPTIBRIUM.logP>
4.49267

> <OPTIBRIUM.P-gp category>
no

> <OPTIBRIUM.logS>
-0.374012

> <OPTIBRIUM.HIA category>
+

> <OPTIBRIUM.PPB90 category>
high

> <OPTIBRIUM.2D6 affinity category>
high

> <OPTIBRIUM.hERG pIC50>
4.67383

> <OPTIBRIUM.2C9 pKi>
5.94949

> <OPTIBRIUM.BBB log([brain]:[blood])>
-0.450526

> <OPTIBRIUM.logS @ pH7.4>
-0.374012

$$$$
Compound 377_1_03
haSeeSAR  07122114523D 1   1.00000     0.00000     0
SeeSAR 11.0.2 hazemaj
 46 49  0  0  0  0            999 V2000
   19.7194  -14.7864   10.2553 Cl  0  0  0  0  0  0  0  0  0  0  0  0
   19.4218  -13.3213    9.2873 C   0  0  0  0  0  0  0  0  0  0  0  0
   19.6658  -13.3179    7.9176 C   0  0  0  0  0  0  0  0  0  0  0  0
   18.9462  -12.1638    9.9019 C   0  0  0  0  0  0  0  0  0  0  0  0
   20.1274  -14.4509    7.3427 O   0  0  0  0  0  0  0  0  0  0  0  0
   19.4327  -12.1597    7.1778 C   0  0  0  0  0  0  0  0  0  0  0  0
   18.6394  -12.1776   11.6556 Cl  0  0  0  0  0  0  0  0  0  0  0  0
   18.7246  -11.0280    9.1261 C   0  0  0  0  0  0  0  0  0  0  0  0
   21.5241  -14.7011    7.2876 C   0  0  0  0  0  0  0  0  0  0  0  0
   18.9619  -10.9971    7.7522 C   0  0  0  0  0  0  0  0  0  0  0  0
   19.6353  -11.9462    5.6903 C   0  0  1  0  0  0  0  0  0  0  0  0
   18.8684  -10.0643    6.7805 O   0  0  0  0  0  0  0  0  0  0  0  0
   18.8077  -10.6919    5.5091 C   0  0  2  0  0  0  0  0  0  0  0  0
   21.0864  -11.6145    5.3641 C   0  0  0  0  0  0  0  0  0  0  0  0
   17.3731  -10.9949    5.1104 C   0  0  0  0  0  0  0  0  0  0  0  0
   16.6509  -10.0957    4.6799 O   0  0  0  0  0  0  0  0  0  0  0  0
   16.9002  -12.2250    5.2257 N   0  0  0  0  0  0  0  0  0  0  0  0
   15.5123  -12.5182    4.8400 C   0  0  0  0  0  0  0  0  0  0  0  0
   14.5624  -11.8840    5.8440 C   0  0  0  0  0  0  0  0  0  0  0  0
   14.7270  -12.0072    7.2236 C   0  0  0  0  0  0  0  0  0  0  0  0
   13.4870  -11.1505    5.3516 C   0  0  0  0  0  0  0  0  0  0  0  0
   13.8191  -11.3988    8.0862 C   0  0  0  0  0  0  0  0  0  0  0  0
   15.7816  -12.7257    7.7824 C   0  0  0  0  0  0  0  0  0  0  0  0
   12.6234  -10.5733    6.2007 N   0  0  0  0  0  0  0  0  0  0  0  0
   12.7653  -10.6800    7.5304 C   0  0  0  0  0  0  0  0  0  0  0  0
   13.9574  -11.5015    9.4669 C   0  0  0  0  0  0  0  0  0  0  0  0
   15.9445  -12.8464    9.1579 C   0  0  0  0  0  0  0  0  0  0  0  0
   15.0211  -12.2262    9.9941 C   0  0  0  0  0  0  0  0  0  0  0  0
   18.3817  -10.2015    9.5724 H   0  0  0  0  0  0  0  0  0  0  0  0
   21.6883  -15.5764    6.8328 H   0  0  0  0  0  0  0  0  0  0  0  0
   21.9738  -13.9696    6.7750 H   0  0  0  0  0  0  0  0  0  0  0  0
   21.8938  -14.7335    8.2162 H   0  0  0  0  0  0  0  0  0  0  0  0
   19.2893  -12.7109    5.1466 H   0  0  0  0  0  0  0  0  0  0  0  0
   19.2325  -10.1033    4.8211 H   0  0  0  0  0  0  0  0  0  0  0  0
   21.1841  -11.4804    4.3780 H   0  0  0  0  0  0  0  0  0  0  0  0
   21.3527  -10.7776    5.8423 H   0  0  0  0  0  0  0  0  0  0  0  0
   21.6747  -12.3678    5.6579 H   0  0  0  0  0  0  0  0  0  0  0  0
   17.4869  -12.9555    5.5754 H   0  0  0  0  0  0  0  0  0  0  0  0
   15.3718  -13.5082    4.8275 H   0  0  0  0  0  0  0  0  0  0  0  0
   15.3333  -12.1446    3.9298 H   0  0  0  0  0  0  0  0  0  0  0  0
   13.3579  -11.0537    4.3647 H   0  0  0  0  0  0  0  0  0  0  0  0
   16.4418  -13.1683    7.1755 H   0  0  0  0  0  0  0  0  0  0  0  0
   12.1023  -10.2351    8.1325 H   0  0  0  0  0  0  0  0  0  0  0  0
   13.2982  -11.0584   10.0744 H   0  0  0  0  0  0  0  0  0  0  0  0
   16.7086  -13.3675    9.5380 H   0  0  0  0  0  0  0  0  0  0  0  0
   15.1235  -12.3025   10.9860 H   0  0  0  0  0  0  0  0  0  0  0  0
  1  2  1  0  0  0  0
  2  3  2  0  0  0  0
  2  4  1  0  0  0  0
  3  5  1  0  0  0  0
  3  6  1  0  0  0  0
  4  7  1  0  0  0  0
  4  8  2  0  0  0  0
  5  9  1  0  0  0  0
  6 10  2  0  0  0  0
  6 11  1  0  0  0  0
 10 12  1  0  0  0  0
 11 13  1  0  0  0  0
 11 14  1  0  0  0  0
 13 15  1  0  0  0  0
 15 16  2  0  0  0  0
 15 17  1  0  0  0  0
 17 18  1  0  0  0  0
 18 19  1  0  0  0  0
 19 20  1  0  0  0  0
 19 21  2  0  0  0  0
 20 22  1  0  0  0  0
 20 23  2  0  0  0  0
 21 24  1  0  0  0  0
 22 25  1  0  0  0  0
 22 26  2  0  0  0  0
 23 27  1  0  0  0  0
 26 28  1  0  0  0  0
  8 10  1  0  0  0  0
 12 13  1  0  0  0  0
 24 25  2  0  0  0  0
 27 28  2  0  0  0  0
  8 29  1  0  0  0  0
  9 30  1  0  0  0  0
  9 31  1  0  0  0  0
  9 32  1  0  0  0  0
 11 33  1  0  0  0  0
 13 34  1  0  0  0  0
 14 35  1  0  0  0  0
 14 36  1  0  0  0  0
 14 37  1  0  0  0  0
 17 38  1  0  0  0  0
 18 39  1  0  0  0  0
 18 40  1  0  0  0  0
 21 41  1  0  0  0  0
 23 42  1  0  0  0  0
 25 43  1  0  0  0  0
 26 44  1  0  0  0  0
 27 45  1  0  0  0  0
 28 46  1  0  0  0  0
M  END
> <BIOSOLVEIT.HYDE_ESTIMATED_AFFINITY_LOWER_BOUNDARY [nM]>
1079617426.048960

> <BIOSOLVEIT.HYDE_ESTIMATED_AFFINITY_UPPER_BOUNDARY [nM]>
107266374481.361237

> <BIOSOLVEIT.HYDE_LIGAND_EFFICIENCY range: ++, +, 0, -, -->
--

> <BIOSOLVEIT.HYDE_LIGAND_LIPOPHILIC_EFFICIENCY range: ++, +, 0, -, -->
--

> <BIOSOLVEIT.INTER_CLASH range: red, yellow, green>
yellow

> <BIOSOLVEIT.INTRA_CLASH range: red, yellow, green>
yellow

> <BIOSOLVEIT.LOGP>
4.7311

> <BIOSOLVEIT.MOLECULAR WEIGHT>
417.29

> <BIOSOLVEIT.MOLECULE_CHECKSUM>
NS44ODk5OzA=

> <BIOSOLVEIT.TORSION_QUALITY range: red, yellow, green, not rotatable>
green

> <BIOSOLVEIT.TPSA>
60.45

> <BIOSOLVEIT.SEESAR_FAVORITE>
favorite

> <smc_score>
0.813

> <QED_score>
0.667

> <distance>
0.595

> <SimilarityPheSA_1>
0.641

> <Smiles>
COc1c(Cl)c(Cl)cc2c1C(C)C(C(=O)NCc1cncc3ccccc13)O2

> <Similarity_SkelSpheres>
0.749

> <Cluster No>
191.0

> <QueryID>
JAN-GHE-5a013bed-2

> <SimilarityPheSA>
0.6409

> <Postera series>
3-aminopyridine-like

> <PDB_code>
Mpro-x10466

> <Approach>
DGM_focussed_RL

> <ID>
20210618_376

> <SimilarityPheSA_2>
0.72

> <OPTIBRIUM.logD>
4.49267

> <OPTIBRIUM.BBB category>
-

> <OPTIBRIUM.logP>
4.49267

> <OPTIBRIUM.P-gp category>
no

> <OPTIBRIUM.logS>
-0.374012

> <OPTIBRIUM.HIA category>
+

> <OPTIBRIUM.PPB90 category>
high

> <OPTIBRIUM.2D6 affinity category>
high

> <OPTIBRIUM.hERG pIC50>
4.67383

> <OPTIBRIUM.2C9 pKi>
5.94949

> <OPTIBRIUM.BBB log([brain]:[blood])>
-0.450526

> <OPTIBRIUM.logS @ pH7.4>
-0.374012

$$$$
Compound 377_1_04
haSeeSAR  07122114523D 1   1.00000     0.00000     0
SeeSAR 11.0.2 hazemaj
 46 49  0  0  0  0            999 V2000
   20.7801  -16.5831    6.9977 Cl  0  0  0  0  0  0  0  0  0  0  0  0
   20.1992  -14.9005    7.0572 C   0  0  0  0  0  0  0  0  0  0  0  0
   20.2413  -14.0981    5.9215 C   0  0  0  0  0  0  0  0  0  0  0  0
   19.7028  -14.3757    8.2496 C   0  0  0  0  0  0  0  0  0  0  0  0
   20.7272  -14.6272    4.7764 O   0  0  0  0  0  0  0  0  0  0  0  0
   19.7879  -12.7816    5.9892 C   0  0  0  0  0  0  0  0  0  0  0  0
   19.6554  -15.4100    9.6980 Cl  0  0  0  0  0  0  0  0  0  0  0  0
   19.2578  -13.0557    8.2744 C   0  0  0  0  0  0  0  0  0  0  0  0
   19.8394  -15.1888    3.8210 C   0  0  0  0  0  0  0  0  0  0  0  0
   19.2899  -12.2296    7.1513 C   0  0  0  0  0  0  0  0  0  0  0  0
   19.7510  -11.7493    4.8793 C   0  0  1  0  0  0  0  0  0  0  0  0
   18.9632  -10.9453    6.8921 O   0  0  0  0  0  0  0  0  0  0  0  0
   18.7834  -10.7623    5.4963 C   0  0  2  0  0  0  0  0  0  0  0  0
   21.0988  -11.0582    4.7113 C   0  0  0  0  0  0  0  0  0  0  0  0
   17.3443  -11.0253    5.0855 C   0  0  0  0  0  0  0  0  0  0  0  0
   16.6424  -10.1006    4.6758 O   0  0  0  0  0  0  0  0  0  0  0  0
   16.8457  -12.2479    5.1679 N   0  0  0  0  0  0  0  0  0  0  0  0
   15.4535  -12.5023    4.7704 C   0  0  0  0  0  0  0  0  0  0  0  0
   14.5133  -11.8950    5.8000 C   0  0  0  0  0  0  0  0  0  0  0  0
   14.7209  -12.0092    7.1745 C   0  0  0  0  0  0  0  0  0  0  0  0
   13.4021  -11.1966    5.3370 C   0  0  0  0  0  0  0  0  0  0  0  0
   13.8195  -11.4269    8.0615 C   0  0  0  0  0  0  0  0  0  0  0  0
   15.8128  -12.6932    7.7043 C   0  0  0  0  0  0  0  0  0  0  0  0
   12.5455  -10.6441    6.2094 N   0  0  0  0  0  0  0  0  0  0  0  0
   12.7285  -10.7426    7.5347 C   0  0  0  0  0  0  0  0  0  0  0  0
   14.0002  -11.5214    9.4379 C   0  0  0  0  0  0  0  0  0  0  0  0
   16.0185  -12.8049    9.0749 C   0  0  0  0  0  0  0  0  0  0  0  0
   15.1005  -12.2112    9.9359 C   0  0  0  0  0  0  0  0  0  0  0  0
   18.9011  -12.6856    9.1321 H   0  0  0  0  0  0  0  0  0  0  0  0
   20.3626  -15.5316    3.0408 H   0  0  0  0  0  0  0  0  0  0  0  0
   19.3327  -15.9426    4.2395 H   0  0  0  0  0  0  0  0  0  0  0  0
   19.1975  -14.4879    3.5100 H   0  0  0  0  0  0  0  0  0  0  0  0
   19.4092  -12.1287    4.0194 H   0  0  0  0  0  0  0  0  0  0  0  0
   19.0426   -9.8307    5.2415 H   0  0  0  0  0  0  0  0  0  0  0  0
   21.0390  -10.3860    3.9735 H   0  0  0  0  0  0  0  0  0  0  0  0
   21.3453  -10.5969    5.5636 H   0  0  0  0  0  0  0  0  0  0  0  0
   21.7964  -11.7385    4.4867 H   0  0  0  0  0  0  0  0  0  0  0  0
   17.4159  -12.9991    5.5007 H   0  0  0  0  0  0  0  0  0  0  0  0
   15.2970  -13.4885    4.7169 H   0  0  0  0  0  0  0  0  0  0  0  0
   15.2811  -12.0885    3.8766 H   0  0  0  0  0  0  0  0  0  0  0  0
   13.2420  -11.1066    4.3540 H   0  0  0  0  0  0  0  0  0  0  0  0
   16.4689  -13.1168    7.0796 H   0  0  0  0  0  0  0  0  0  0  0  0
   12.0694  -10.3167    8.1546 H   0  0  0  0  0  0  0  0  0  0  0  0
   13.3452  -11.0971   10.0632 H   0  0  0  0  0  0  0  0  0  0  0  0
   16.8089  -13.3010    9.4340 H   0  0  0  0  0  0  0  0  0  0  0  0
   15.2334  -12.2816   10.9246 H   0  0  0  0  0  0  0  0  0  0  0  0
  1  2  1  0  0  0  0
  2  3  2  0  0  0  0
  2  4  1  0  0  0  0
  3  5  1  0  0  0  0
  3  6  1  0  0  0  0
  4  7  1  0  0  0  0
  4  8  2  0  0  0  0
  5  9  1  0  0  0  0
  6 10  2  0  0  0  0
  6 11  1  0  0  0  0
 10 12  1  0  0  0  0
 11 13  1  0  0  0  0
 11 14  1  0  0  0  0
 13 15  1  0  0  0  0
 15 16  2  0  0  0  0
 15 17  1  0  0  0  0
 17 18  1  0  0  0  0
 18 19  1  0  0  0  0
 19 20  1  0  0  0  0
 19 21  2  0  0  0  0
 20 22  1  0  0  0  0
 20 23  2  0  0  0  0
 21 24  1  0  0  0  0
 22 25  1  0  0  0  0
 22 26  2  0  0  0  0
 23 27  1  0  0  0  0
 26 28  1  0  0  0  0
  8 10  1  0  0  0  0
 12 13  1  0  0  0  0
 24 25  2  0  0  0  0
 27 28  2  0  0  0  0
  8 29  1  0  0  0  0
  9 30  1  0  0  0  0
  9 31  1  0  0  0  0
  9 32  1  0  0  0  0
 11 33  1  0  0  0  0
 13 34  1  0  0  0  0
 14 35  1  0  0  0  0
 14 36  1  0  0  0  0
 14 37  1  0  0  0  0
 17 38  1  0  0  0  0
 18 39  1  0  0  0  0
 18 40  1  0  0  0  0
 21 41  1  0  0  0  0
 23 42  1  0  0  0  0
 25 43  1  0  0  0  0
 26 44  1  0  0  0  0
 27 45  1  0  0  0  0
 28 46  1  0  0  0  0
M  END
> <BIOSOLVEIT.HYDE_ESTIMATED_AFFINITY_LOWER_BOUNDARY [nM]>
327246831.497470

> <BIOSOLVEIT.HYDE_ESTIMATED_AFFINITY_UPPER_BOUNDARY [nM]>
32513907545.666634

> <BIOSOLVEIT.HYDE_LIGAND_EFFICIENCY range: ++, +, 0, -, -->
--

> <BIOSOLVEIT.HYDE_LIGAND_LIPOPHILIC_EFFICIENCY range: ++, +, 0, -, -->
--

> <BIOSOLVEIT.INTER_CLASH range: red, yellow, green>
green

> <BIOSOLVEIT.INTRA_CLASH range: red, yellow, green>
yellow

> <BIOSOLVEIT.LOGP>
4.7311

> <BIOSOLVEIT.MOLECULAR WEIGHT>
417.29

> <BIOSOLVEIT.MOLECULE_CHECKSUM>
Mi45MzA5OzA=

> <BIOSOLVEIT.TORSION_QUALITY range: red, yellow, green, not rotatable>
green

> <BIOSOLVEIT.TPSA>
60.45

> <BIOSOLVEIT.SEESAR_FAVORITE>
favorite

> <smc_score>
0.813

> <QED_score>
0.667

> <distance>
0.595

> <SimilarityPheSA_1>
0.641

> <Smiles>
COc1c(Cl)c(Cl)cc2c1C(C)C(C(=O)NCc1cncc3ccccc13)O2

> <Similarity_SkelSpheres>
0.749

> <Cluster No>
191.0

> <QueryID>
JAN-GHE-5a013bed-2

> <SimilarityPheSA>
0.6409

> <Postera series>
3-aminopyridine-like

> <PDB_code>
Mpro-x10466

> <Approach>
DGM_focussed_RL

> <ID>
20210618_376

> <SimilarityPheSA_2>
0.72

> <OPTIBRIUM.logD>
4.49267

> <OPTIBRIUM.BBB category>
-

> <OPTIBRIUM.logP>
4.49267

> <OPTIBRIUM.P-gp category>
no

> <OPTIBRIUM.logS>
-0.374012

> <OPTIBRIUM.HIA category>
+

> <OPTIBRIUM.PPB90 category>
high

> <OPTIBRIUM.2D6 affinity category>
high

> <OPTIBRIUM.hERG pIC50>
4.67383

> <OPTIBRIUM.2C9 pKi>
5.94949

> <OPTIBRIUM.BBB log([brain]:[blood])>
-0.450526

> <OPTIBRIUM.logS @ pH7.4>
-0.374012

$$$$
Compound 377_1_05
haSeeSAR  07122114523D 1   1.00000     0.00000     0
SeeSAR 11.0.2 hazemaj
 46 49  0  0  0  0            999 V2000
   20.7813  -16.5841    6.9977 Cl  0  0  0  0  0  0  0  0  0  0  0  0
   20.2009  -14.9014    7.0576 C   0  0  0  0  0  0  0  0  0  0  0  0
   20.2422  -14.0992    5.9216 C   0  0  0  0  0  0  0  0  0  0  0  0
   19.7055  -14.3763    8.2503 C   0  0  0  0  0  0  0  0  0  0  0  0
   20.7270  -14.6286    4.7762 O   0  0  0  0  0  0  0  0  0  0  0  0
   19.7892  -12.7827    5.9896 C   0  0  0  0  0  0  0  0  0  0  0  0
   19.6590  -15.4104    9.6988 Cl  0  0  0  0  0  0  0  0  0  0  0  0
   19.2610  -13.0562    8.2752 C   0  0  0  0  0  0  0  0  0  0  0  0
   19.8383  -15.1898    3.8215 C   0  0  0  0  0  0  0  0  0  0  0  0
   19.2923  -12.2302    7.1519 C   0  0  0  0  0  0  0  0  0  0  0  0
   19.7515  -11.7505    4.8795 C   0  0  1  0  0  0  0  0  0  0  0  0
   18.9657  -10.9459    6.8928 O   0  0  0  0  0  0  0  0  0  0  0  0
   18.7846  -10.7631    5.4972 C   0  0  2  0  0  0  0  0  0  0  0  0
   21.0993  -11.0598    4.7103 C   0  0  0  0  0  0  0  0  0  0  0  0
   17.3452  -11.0258    5.0875 C   0  0  0  0  0  0  0  0  0  0  0  0
   16.6435  -10.1013    4.6774 O   0  0  0  0  0  0  0  0  0  0  0  0
   16.8461  -12.2482    5.1716 N   0  0  0  0  0  0  0  0  0  0  0  0
   15.4535  -12.5022    4.7752 C   0  0  0  0  0  0  0  0  0  0  0  0
   14.5139  -11.8961    5.8070 C   0  0  0  0  0  0  0  0  0  0  0  0
   14.7226  -12.0094    7.1810 C   0  0  0  0  0  0  0  0  0  0  0  0
   13.4000  -11.1997    5.3484 C   0  0  0  0  0  0  0  0  0  0  0  0
   13.8165  -11.4270    8.0617 C   0  0  0  0  0  0  0  0  0  0  0  0
   15.8148  -12.6917    7.7132 C   0  0  0  0  0  0  0  0  0  0  0  0
   12.5398  -10.6459    6.2158 N   0  0  0  0  0  0  0  0  0  0  0  0
   12.7223  -10.7437    7.5410 C   0  0  0  0  0  0  0  0  0  0  0  0
   14.0009  -11.5244    9.4369 C   0  0  0  0  0  0  0  0  0  0  0  0
   16.0186  -12.8018    9.0845 C   0  0  0  0  0  0  0  0  0  0  0  0
   15.0992  -12.2102    9.9447 C   0  0  0  0  0  0  0  0  0  0  0  0
   18.9049  -12.6860    9.1332 H   0  0  0  0  0  0  0  0  0  0  0  0
   20.3608  -15.5328    3.0408 H   0  0  0  0  0  0  0  0  0  0  0  0
   19.3315  -15.9433    4.2403 H   0  0  0  0  0  0  0  0  0  0  0  0
   19.1965  -14.4886    3.5108 H   0  0  0  0  0  0  0  0  0  0  0  0
   19.4090  -12.1299    4.0200 H   0  0  0  0  0  0  0  0  0  0  0  0
   19.0439   -9.8316    5.2420 H   0  0  0  0  0  0  0  0  0  0  0  0
   21.0391  -10.3875    3.9724 H   0  0  0  0  0  0  0  0  0  0  0  0
   21.3466  -10.5982    5.5623 H   0  0  0  0  0  0  0  0  0  0  0  0
   21.7966  -11.7402    4.4852 H   0  0  0  0  0  0  0  0  0  0  0  0
   17.4161  -12.9991    5.5047 H   0  0  0  0  0  0  0  0  0  0  0  0
   15.2971  -13.4884    4.7206 H   0  0  0  0  0  0  0  0  0  0  0  0
   15.2801  -12.0873    3.8820 H   0  0  0  0  0  0  0  0  0  0  0  0
   13.2399  -11.1116    4.3652 H   0  0  0  0  0  0  0  0  0  0  0  0
   16.4723  -13.1153    7.0900 H   0  0  0  0  0  0  0  0  0  0  0  0
   12.0634  -10.3199    8.1625 H   0  0  0  0  0  0  0  0  0  0  0  0
   13.3436  -11.1012   10.0606 H   0  0  0  0  0  0  0  0  0  0  0  0
   16.8097  -13.2960    9.4449 H   0  0  0  0  0  0  0  0  0  0  0  0
   15.2286  -12.2784   10.9340 H   0  0  0  0  0  0  0  0  0  0  0  0
  1  2  1  0  0  0  0
  2  3  2  0  0  0  0
  2  4  1  0  0  0  0
  3  5  1  0  0  0  0
  3  6  1  0  0  0  0
  4  7  1  0  0  0  0
  4  8  2  0  0  0  0
  5  9  1  0  0  0  0
  6 10  2  0  0  0  0
  6 11  1  0  0  0  0
 10 12  1  0  0  0  0
 11 13  1  0  0  0  0
 11 14  1  0  0  0  0
 13 15  1  0  0  0  0
 15 16  2  0  0  0  0
 15 17  1  0  0  0  0
 17 18  1  0  0  0  0
 18 19  1  0  0  0  0
 19 20  1  0  0  0  0
 19 21  2  0  0  0  0
 20 22  1  0  0  0  0
 20 23  2  0  0  0  0
 21 24  1  0  0  0  0
 22 25  1  0  0  0  0
 22 26  2  0  0  0  0
 23 27  1  0  0  0  0
 26 28  1  0  0  0  0
  8 10  1  0  0  0  0
 12 13  1  0  0  0  0
 24 25  2  0  0  0  0
 27 28  2  0  0  0  0
  8 29  1  0  0  0  0
  9 30  1  0  0  0  0
  9 31  1  0  0  0  0
  9 32  1  0  0  0  0
 11 33  1  0  0  0  0
 13 34  1  0  0  0  0
 14 35  1  0  0  0  0
 14 36  1  0  0  0  0
 14 37  1  0  0  0  0
 17 38  1  0  0  0  0
 18 39  1  0  0  0  0
 18 40  1  0  0  0  0
 21 41  1  0  0  0  0
 23 42  1  0  0  0  0
 25 43  1  0  0  0  0
 26 44  1  0  0  0  0
 27 45  1  0  0  0  0
 28 46  1  0  0  0  0
M  END
> <BIOSOLVEIT.HYDE_ESTIMATED_AFFINITY_LOWER_BOUNDARY [nM]>
303072488.154314

> <BIOSOLVEIT.HYDE_ESTIMATED_AFFINITY_UPPER_BOUNDARY [nM]>
30112043604.494610

> <BIOSOLVEIT.HYDE_LIGAND_EFFICIENCY range: ++, +, 0, -, -->
--

> <BIOSOLVEIT.HYDE_LIGAND_LIPOPHILIC_EFFICIENCY range: ++, +, 0, -, -->
--

> <BIOSOLVEIT.INTER_CLASH range: red, yellow, green>
green

> <BIOSOLVEIT.INTRA_CLASH range: red, yellow, green>
yellow

> <BIOSOLVEIT.LOGP>
4.7311

> <BIOSOLVEIT.MOLECULAR WEIGHT>
417.29

> <BIOSOLVEIT.MOLECULE_CHECKSUM>
Mi43NDA2Njsw

> <BIOSOLVEIT.TORSION_QUALITY range: red, yellow, green, not rotatable>
green

> <BIOSOLVEIT.TPSA>
60.45

> <BIOSOLVEIT.SEESAR_FAVORITE>
favorite

> <smc_score>
0.813

> <QED_score>
0.667

> <distance>
0.595

> <SimilarityPheSA_1>
0.641

> <Smiles>
COc1c(Cl)c(Cl)cc2c1C(C)C(C(=O)NCc1cncc3ccccc13)O2

> <Similarity_SkelSpheres>
0.749

> <Cluster No>
191.0

> <QueryID>
JAN-GHE-5a013bed-2

> <SimilarityPheSA>
0.6409

> <Postera series>
3-aminopyridine-like

> <PDB_code>
Mpro-x10466

> <Approach>
DGM_focussed_RL

> <ID>
20210618_376

> <SimilarityPheSA_2>
0.72

> <OPTIBRIUM.logD>
4.49267

> <OPTIBRIUM.BBB category>
-

> <OPTIBRIUM.logP>
4.49267

> <OPTIBRIUM.P-gp category>
no

> <OPTIBRIUM.logS>
-0.374012

> <OPTIBRIUM.HIA category>
+

> <OPTIBRIUM.PPB90 category>
high

> <OPTIBRIUM.2D6 affinity category>
high

> <OPTIBRIUM.hERG pIC50>
4.67383

> <OPTIBRIUM.2C9 pKi>
5.94949

> <OPTIBRIUM.BBB log([brain]:[blood])>
-0.450526

> <OPTIBRIUM.logS @ pH7.4>
-0.374012

$$$$
Compound 377_1_07
haSeeSAR  07122114523D 1   1.00000     0.00000     0
SeeSAR 11.0.2 hazemaj
 46 49  0  0  0  0            999 V2000
   19.7030  -14.7981   10.2817 Cl  0  0  0  0  0  0  0  0  0  0  0  0
   19.4056  -13.3295    9.3192 C   0  0  0  0  0  0  0  0  0  0  0  0
   19.6574  -13.3187    7.9508 C   0  0  0  0  0  0  0  0  0  0  0  0
   18.9222  -12.1768    9.9365 C   0  0  0  0  0  0  0  0  0  0  0  0
   20.1266  -14.4472    7.3732 O   0  0  0  0  0  0  0  0  0  0  0  0
   19.4244  -12.1578    7.2153 C   0  0  0  0  0  0  0  0  0  0  0  0
   18.6052  -12.2003   11.6882 Cl  0  0  0  0  0  0  0  0  0  0  0  0
   18.7009  -11.0381    9.1648 C   0  0  0  0  0  0  0  0  0  0  0  0
   21.5235  -14.6996    7.3393 C   0  0  0  0  0  0  0  0  0  0  0  0
   18.9460  -10.9997    7.7926 C   0  0  0  0  0  0  0  0  0  0  0  0
   19.6348  -11.9364    5.7301 C   0  0  1  0  0  0  0  0  0  0  0  0
   18.8546  -10.0625    6.8248 O   0  0  0  0  0  0  0  0  0  0  0  0
   18.8036  -10.6842    5.5500 C   0  0  2  0  0  0  0  0  0  0  0  0
   21.0865  -11.5977    5.4139 C   0  0  0  0  0  0  0  0  0  0  0  0
   17.3725  -10.9905    5.1416 C   0  0  0  0  0  0  0  0  0  0  0  0
   16.6532  -10.0944    4.7000 O   0  0  0  0  0  0  0  0  0  0  0  0
   16.8995  -12.2203    5.2604 N   0  0  0  0  0  0  0  0  0  0  0  0
   15.5150  -12.5167    4.8651 C   0  0  0  0  0  0  0  0  0  0  0  0
   14.5567  -11.8851    5.8629 C   0  0  0  0  0  0  0  0  0  0  0  0
   14.7132  -12.0069    7.2435 C   0  0  0  0  0  0  0  0  0  0  0  0
   13.4819  -11.1556    5.3633 C   0  0  0  0  0  0  0  0  0  0  0  0
   13.7980  -11.4011    8.1001 C   0  0  0  0  0  0  0  0  0  0  0  0
   15.7668  -12.7215    7.8093 C   0  0  0  0  0  0  0  0  0  0  0  0
   12.6111  -10.5808    6.2068 N   0  0  0  0  0  0  0  0  0  0  0  0
   12.7452  -10.6862    7.5373 C   0  0  0  0  0  0  0  0  0  0  0  0
   13.9281  -11.5024    9.4817 C   0  0  0  0  0  0  0  0  0  0  0  0
   15.9216  -12.8407    9.1859 C   0  0  0  0  0  0  0  0  0  0  0  0
   14.9910  -12.2232   10.0160 C   0  0  0  0  0  0  0  0  0  0  0  0
   18.3522  -10.2150    9.6132 H   0  0  0  0  0  0  0  0  0  0  0  0
   21.6938  -15.5709    6.8791 H   0  0  0  0  0  0  0  0  0  0  0  0
   21.9831  -13.9642    6.8412 H   0  0  0  0  0  0  0  0  0  0  0  0
   21.8775  -14.7413    8.2736 H   0  0  0  0  0  0  0  0  0  0  0  0
   19.2949  -12.6996    5.1807 H   0  0  0  0  0  0  0  0  0  0  0  0
   19.2301  -10.0907    4.8674 H   0  0  0  0  0  0  0  0  0  0  0  0
   21.1895  -11.4584    4.4291 H   0  0  0  0  0  0  0  0  0  0  0  0
   21.3469  -10.7622    5.8977 H   0  0  0  0  0  0  0  0  0  0  0  0
   21.6759  -12.3502    5.7075 H   0  0  0  0  0  0  0  0  0  0  0  0
   17.4838  -12.9483    5.6191 H   0  0  0  0  0  0  0  0  0  0  0  0
   15.3770  -13.5071    4.8514 H   0  0  0  0  0  0  0  0  0  0  0  0
   15.3413  -12.1434    3.9539 H   0  0  0  0  0  0  0  0  0  0  0  0
   13.3587  -11.0599    4.3756 H   0  0  0  0  0  0  0  0  0  0  0  0
   16.4322  -13.1623    7.2067 H   0  0  0  0  0  0  0  0  0  0  0  0
   12.0770  -10.2431    8.1351 H   0  0  0  0  0  0  0  0  0  0  0  0
   13.2637  -11.0611   10.0849 H   0  0  0  0  0  0  0  0  0  0  0  0
   16.6851  -13.3590    9.5710 H   0  0  0  0  0  0  0  0  0  0  0  0
   15.0875  -12.2985   11.0085 H   0  0  0  0  0  0  0  0  0  0  0  0
  1  2  1  0  0  0  0
  2  3  2  0  0  0  0
  2  4  1  0  0  0  0
  3  5  1  0  0  0  0
  3  6  1  0  0  0  0
  4  7  1  0  0  0  0
  4  8  2  0  0  0  0
  5  9  1  0  0  0  0
  6 10  2  0  0  0  0
  6 11  1  0  0  0  0
 10 12  1  0  0  0  0
 11 13  1  0  0  0  0
 11 14  1  0  0  0  0
 13 15  1  0  0  0  0
 15 16  2  0  0  0  0
 15 17  1  0  0  0  0
 17 18  1  0  0  0  0
 18 19  1  0  0  0  0
 19 20  1  0  0  0  0
 19 21  2  0  0  0  0
 20 22  1  0  0  0  0
 20 23  2  0  0  0  0
 21 24  1  0  0  0  0
 22 25  1  0  0  0  0
 22 26  2  0  0  0  0
 23 27  1  0  0  0  0
 26 28  1  0  0  0  0
  8 10  1  0  0  0  0
 12 13  1  0  0  0  0
 24 25  2  0  0  0  0
 27 28  2  0  0  0  0
  8 29  1  0  0  0  0
  9 30  1  0  0  0  0
  9 31  1  0  0  0  0
  9 32  1  0  0  0  0
 11 33  1  0  0  0  0
 13 34  1  0  0  0  0
 14 35  1  0  0  0  0
 14 36  1  0  0  0  0
 14 37  1  0  0  0  0
 17 38  1  0  0  0  0
 18 39  1  0  0  0  0
 18 40  1  0  0  0  0
 21 41  1  0  0  0  0
 23 42  1  0  0  0  0
 25 43  1  0  0  0  0
 26 44  1  0  0  0  0
 27 45  1  0  0  0  0
 28 46  1  0  0  0  0
M  END
> <BIOSOLVEIT.HYDE_ESTIMATED_AFFINITY_LOWER_BOUNDARY [nM]>
1168762860.712318

> <BIOSOLVEIT.HYDE_ESTIMATED_AFFINITY_UPPER_BOUNDARY [nM]>
116123500484.688492

> <BIOSOLVEIT.HYDE_LIGAND_EFFICIENCY range: ++, +, 0, -, -->
--

> <BIOSOLVEIT.HYDE_LIGAND_LIPOPHILIC_EFFICIENCY range: ++, +, 0, -, -->
--

> <BIOSOLVEIT.INTER_CLASH range: red, yellow, green>
yellow

> <BIOSOLVEIT.INTRA_CLASH range: red, yellow, green>
yellow

> <BIOSOLVEIT.LOGP>
4.7311

> <BIOSOLVEIT.MOLECULAR WEIGHT>
417.29

> <BIOSOLVEIT.MOLECULE_CHECKSUM>
Ni4wODY1ODsw

> <BIOSOLVEIT.TORSION_QUALITY range: red, yellow, green, not rotatable>
green

> <BIOSOLVEIT.TPSA>
60.45

> <BIOSOLVEIT.SEESAR_FAVORITE>
favorite

> <smc_score>
0.813

> <QED_score>
0.667

> <distance>
0.595

> <SimilarityPheSA_1>
0.641

> <Smiles>
COc1c(Cl)c(Cl)cc2c1C(C)C(C(=O)NCc1cncc3ccccc13)O2

> <Similarity_SkelSpheres>
0.749

> <Cluster No>
191.0

> <QueryID>
JAN-GHE-5a013bed-2

> <SimilarityPheSA>
0.6409

> <Postera series>
3-aminopyridine-like

> <PDB_code>
Mpro-x10466

> <Approach>
DGM_focussed_RL

> <ID>
20210618_376

> <SimilarityPheSA_2>
0.72

> <OPTIBRIUM.logD>
4.49267

> <OPTIBRIUM.BBB category>
-

> <OPTIBRIUM.logP>
4.49267

> <OPTIBRIUM.P-gp category>
no

> <OPTIBRIUM.logS>
-0.374012

> <OPTIBRIUM.HIA category>
+

> <OPTIBRIUM.PPB90 category>
high

> <OPTIBRIUM.2D6 affinity category>
high

> <OPTIBRIUM.hERG pIC50>
4.67383

> <OPTIBRIUM.2C9 pKi>
5.94949

> <OPTIBRIUM.BBB log([brain]:[blood])>
-0.450526

> <OPTIBRIUM.logS @ pH7.4>
-0.374012

$$$$
Compound 391_1_1
haSeeSAR  07122114523D 1   1.00000     0.00000     0
SeeSAR 11.0.2 hazemaj
 43 45  0  0  0  0            999 V2000
   23.4731   -9.3662    3.4281 Cl  0  0  0  0  0  0  0  0  0  0  0  0
   21.7125   -9.1383    3.2985 C   0  0  0  0  0  0  0  0  0  0  0  0
   20.8539  -10.1696    3.6650 C   0  0  0  0  0  0  0  0  0  0  0  0
   21.2149   -7.9267    2.8304 C   0  0  0  0  0  0  0  0  0  0  0  0
   21.3569  -11.3382    4.1170 O   0  0  0  0  0  0  0  0  0  0  0  0
   19.4806   -9.9779    3.5581 C   0  0  0  0  0  0  0  0  0  0  0  0
   19.8379   -7.7553    2.7312 C   0  0  0  0  0  0  0  0  0  0  0  0
   21.9010  -11.4179    5.4263 C   0  0  0  0  0  0  0  0  0  0  0  0
   18.9624   -8.7741    3.0922 C   0  0  0  0  0  0  0  0  0  0  0  0
   18.5245  -11.0924    3.9530 C   0  0  0  0  0  0  0  0  0  0  0  0
   19.1880   -6.2100    2.1332 Cl  0  0  0  0  0  0  0  0  0  0  0  0
   17.8721  -10.7527    5.2832 C   0  0  0  0  0  0  0  0  0  0  0  0
   16.7490  -10.2494    5.3072 O   0  0  0  0  0  0  0  0  0  0  0  0
   18.5115  -10.9978    6.4153 N   0  0  0  0  0  0  0  0  0  0  0  0
   17.8805  -10.6693    7.7017 C   0  0  0  0  0  0  0  0  0  0  0  0
   17.0067  -11.8300    8.1484 C   0  0  0  0  0  0  0  0  0  0  0  0
   15.6409  -11.5019    7.9398 O   0  0  0  0  0  0  0  0  0  0  0  0
   14.9323  -12.1385    6.9831 C   0  0  0  0  0  0  0  0  0  0  0  0
   13.6195  -11.7881    6.6848 C   0  0  0  0  0  0  0  0  0  0  0  0
   15.5296  -13.1750    6.2737 C   0  0  0  0  0  0  0  0  0  0  0  0
   12.9049  -12.4360    5.7102 C   0  0  0  0  0  0  0  0  0  0  0  0
   12.7625  -10.8000    7.2168 C   0  0  0  0  0  0  0  0  0  0  0  0
   14.8156  -13.8420    5.2833 C   0  0  0  0  0  0  0  0  0  0  0  0
   11.6706  -11.8553    5.6591 N   0  0  0  0  0  0  0  0  0  0  0  0
   13.5035  -13.4726    5.0010 C   0  0  0  0  0  0  0  0  0  0  0  0
   11.6317  -10.9002    6.5619 N   0  0  0  0  0  0  0  0  0  0  0  0
   21.8379   -7.1894    2.5689 H   0  0  0  0  0  0  0  0  0  0  0  0
   22.2257  -12.3483    5.5963 H   0  0  0  0  0  0  0  0  0  0  0  0
   22.6648  -10.7779    5.5093 H   0  0  0  0  0  0  0  0  0  0  0  0
   21.1956  -11.1836    6.0952 H   0  0  0  0  0  0  0  0  0  0  0  0
   17.9738   -8.6429    3.0176 H   0  0  0  0  0  0  0  0  0  0  0  0
   19.0304  -11.9506    4.0394 H   0  0  0  0  0  0  0  0  0  0  0  0
   17.8190  -11.1906    3.2511 H   0  0  0  0  0  0  0  0  0  0  0  0
   19.4238  -11.4067    6.3958 H   0  0  0  0  0  0  0  0  0  0  0  0
   17.3178   -9.8493    7.5972 H   0  0  0  0  0  0  0  0  0  0  0  0
   18.5891  -10.5023    8.3874 H   0  0  0  0  0  0  0  0  0  0  0  0
   17.1618  -12.0093    9.1200 H   0  0  0  0  0  0  0  0  0  0  0  0
   17.2384  -12.6453    7.6179 H   0  0  0  0  0  0  0  0  0  0  0  0
   16.4723  -13.4409    6.4756 H   0  0  0  0  0  0  0  0  0  0  0  0
   12.9761  -10.1522    7.9481 H   0  0  0  0  0  0  0  0  0  0  0  0
   15.2452  -14.5874    4.7736 H   0  0  0  0  0  0  0  0  0  0  0  0
   12.9912  -13.9522    4.2888 H   0  0  0  0  0  0  0  0  0  0  0  0
   10.8346  -10.3199    6.7289 H   0  0  0  0  0  0  0  0  0  0  0  0
  1  2  1  0  0  0  0
  2  3  2  0  0  0  0
  2  4  1  0  0  0  0
  3  5  1  0  0  0  0
  3  6  1  0  0  0  0
  4  7  2  0  0  0  0
  5  8  1  0  0  0  0
  6  9  2  0  0  0  0
  6 10  1  0  0  0  0
  7 11  1  0  0  0  0
 10 12  1  0  0  0  0
 12 13  2  0  0  0  0
 12 14  1  0  0  0  0
 14 15  1  0  0  0  0
 15 16  1  0  0  0  0
 16 17  1  0  0  0  0
 17 18  1  0  0  0  0
 18 19  1  0  0  0  0
 18 20  2  0  0  0  0
 19 21  1  0  0  0  0
 19 22  2  0  0  0  0
 20 23  1  0  0  0  0
 21 24  2  0  0  0  0
 21 25  1  0  0  0  0
 22 26  1  0  0  0  0
  7  9  1  0  0  0  0
 23 25  2  0  0  0  0
 24 26  1  0  0  0  0
  4 27  1  0  0  0  0
  8 28  1  0  0  0  0
  8 29  1  0  0  0  0
  8 30  1  0  0  0  0
  9 31  1  0  0  0  0
 10 32  1  0  0  0  0
 10 33  1  0  0  0  0
 14 34  1  0  0  0  0
 15 35  1  0  0  0  0
 15 36  1  0  0  0  0
 16 37  1  0  0  0  0
 16 38  1  0  0  0  0
 20 39  1  0  0  0  0
 22 40  1  0  0  0  0
 23 41  1  0  0  0  0
 25 42  1  0  0  0  0
 26 43  1  0  0  0  0
M  END
> <BIOSOLVEIT.HYDE_ESTIMATED_AFFINITY_LOWER_BOUNDARY [nM]>
860945820459.972168

> <BIOSOLVEIT.HYDE_ESTIMATED_AFFINITY_UPPER_BOUNDARY [nM]>
85540057577242.156250

> <BIOSOLVEIT.HYDE_LIGAND_EFFICIENCY range: ++, +, 0, -, -->
--

> <BIOSOLVEIT.HYDE_LIGAND_LIPOPHILIC_EFFICIENCY range: ++, +, 0, -, -->
--

> <BIOSOLVEIT.INTER_CLASH range: red, yellow, green>
green

> <BIOSOLVEIT.INTRA_CLASH range: red, yellow, green>
green

> <BIOSOLVEIT.LOGP>
3.616

> <BIOSOLVEIT.MOLECULAR WEIGHT>
394.256

> <BIOSOLVEIT.MOLECULE_CHECKSUM>
MjIuNDUyOTsw

> <BIOSOLVEIT.TORSION_QUALITY range: red, yellow, green, not rotatable>
yellow

> <BIOSOLVEIT.TPSA>
76.24

> <BIOSOLVEIT.SEESAR_FAVORITE>
favorite

> <smc_score>
0.563

> <QED_score>
0.601

> <distance>
0.521

> <SimilarityPheSA_1>
0.669

> <Smiles>
COc1c(Cl)cc(Cl)cc1CC(=O)NCCOc1cccc2[nH]ncc12

> <Similarity_SkelSpheres>
0.681

> <Cluster No>
198.0

> <QueryID>
ALP-POS-ce760d3f-2

> <SimilarityPheSA>
0.669

> <Postera series>
3-aminopyridine-like

> <PDB_code>
Mpro-x12659

> <Approach>
DGM_focussed_RL

> <ID>
20210618_390

> <SimilarityPheSA_2>
0.677

> <OPTIBRIUM.logD>
3.55088

> <OPTIBRIUM.BBB category>
-

> <OPTIBRIUM.logP>
3.55088

> <OPTIBRIUM.P-gp category>
no

> <OPTIBRIUM.logS>
1.38646

> <OPTIBRIUM.HIA category>
+

> <OPTIBRIUM.PPB90 category>
high

> <OPTIBRIUM.2D6 affinity category>
medium

> <OPTIBRIUM.hERG pIC50>
4.38798

> <OPTIBRIUM.2C9 pKi>
5.45425

> <OPTIBRIUM.BBB log([brain]:[blood])>
-0.577638

> <OPTIBRIUM.logS @ pH7.4>
1.38646

$$$$
Compound 401_1_1
haSeeSAR  07122114523D 1   1.00000     0.00000     0
SeeSAR 11.0.2 hazemaj
 47 49  0  0  0  0            999 V2000
   23.6887   -9.8591    5.9108 Cl  0  0  0  0  0  0  0  0  0  0  0  0
   22.2071   -9.5288    4.9811 C   0  0  0  0  0  0  0  0  0  0  0  0
   21.3578  -10.5764    4.6405 C   0  0  0  0  0  0  0  0  0  0  0  0
   21.9157   -8.2216    4.6054 C   0  0  0  0  0  0  0  0  0  0  0  0
   21.6586  -11.8384    5.0148 O   0  0  0  0  0  0  0  0  0  0  0  0
   20.2038  -10.3039    3.9136 C   0  0  0  0  0  0  0  0  0  0  0  0
   20.7562   -7.9705    3.8788 C   0  0  0  0  0  0  0  0  0  0  0  0
   21.5971  -12.2063    6.3848 C   0  0  0  0  0  0  0  0  0  0  0  0
   19.8940   -9.0039    3.5277 C   0  0  0  0  0  0  0  0  0  0  0  0
   19.2620  -11.4346    3.5304 C   0  0  0  0  0  0  0  0  0  0  0  0
   20.3718   -6.3024    3.3912 Cl  0  0  0  0  0  0  0  0  0  0  0  0
   18.3943  -11.7561    4.6702 N   0  0  0  0  0  0  0  0  0  0  0  0
   17.3011  -10.9487    5.0167 C   0  0  0  0  0  0  0  0  0  0  0  0
   18.6599  -12.9540    5.4798 C   0  0  0  0  0  0  0  0  0  0  0  0
   17.0405   -9.9549    4.3521 O   0  0  0  0  0  0  0  0  0  0  0  0
   16.4564  -11.3521    6.2226 C   0  0  0  0  0  0  0  0  0  0  0  0
   17.3497  -13.6606    5.8112 C   0  0  0  0  0  0  0  0  0  0  0  0
   16.2845  -12.8106    6.3840 N   0  3  2  0  0  0  0  0  0  0  0  0
   15.0318  -13.1885    5.7134 C   0  0  0  0  0  0  0  0  0  0  0  0
   13.8839  -13.1230    6.7091 C   0  0  1  0  0  0  0  0  0  0  0  0
   13.8118  -11.8262    7.3825 N   0  0  0  0  0  0  0  0  0  0  0  0
   12.5243  -13.2508    6.0478 C   0  0  0  0  0  0  0  0  0  0  0  0
   12.8702  -11.0334    6.7292 C   0  0  0  0  0  0  0  0  0  0  0  0
   12.3029  -11.8304    5.5771 C   0  0  0  0  0  0  0  0  0  0  0  0
   12.5548   -9.8965    7.0371 O   0  0  0  0  0  0  0  0  0  0  0  0
   22.5306   -7.4732    4.8540 H   0  0  0  0  0  0  0  0  0  0  0  0
   21.8488  -13.1692    6.4830 H   0  0  0  0  0  0  0  0  0  0  0  0
   22.2322  -11.6405    6.9108 H   0  0  0  0  0  0  0  0  0  0  0  0
   20.6671  -12.0684    6.7257 H   0  0  0  0  0  0  0  0  0  0  0  0
   19.0627   -8.8150    3.0050 H   0  0  0  0  0  0  0  0  0  0  0  0
   19.7956  -12.2422    3.2794 H   0  0  0  0  0  0  0  0  0  0  0  0
   18.7001  -11.1514    2.7532 H   0  0  0  0  0  0  0  0  0  0  0  0
   19.1152  -12.6855    6.3288 H   0  0  0  0  0  0  0  0  0  0  0  0
   19.2512  -13.5761    4.9667 H   0  0  0  0  0  0  0  0  0  0  0  0
   15.5510  -10.9393    6.1231 H   0  0  0  0  0  0  0  0  0  0  0  0
   16.8966  -10.9955    7.0466 H   0  0  0  0  0  0  0  0  0  0  0  0
   17.5506  -14.3856    6.4699 H   0  0  0  0  0  0  0  0  0  0  0  0
   16.9979  -14.0653    4.9671 H   0  0  0  0  0  0  0  0  0  0  0  0
   15.1118  -14.1196    5.3576 H   0  0  0  0  0  0  0  0  0  0  0  0
   14.8544  -12.5573    4.9583 H   0  0  0  0  0  0  0  0  0  0  0  0
   13.9922  -13.8468    7.3906 H   0  0  0  0  0  0  0  0  0  0  0  0
   14.3497  -11.5536    8.1801 H   0  0  0  0  0  0  0  0  0  0  0  0
   11.8226  -13.5355    6.7011 H   0  0  0  0  0  0  0  0  0  0  0  0
   12.5466  -13.8930    5.2817 H   0  0  0  0  0  0  0  0  0  0  0  0
   11.3307  -11.6378    5.4445 H   0  0  0  0  0  0  0  0  0  0  0  0
   12.7980  -11.6465    4.7280 H   0  0  0  0  0  0  0  0  0  0  0  0
   16.2003  -13.0168    7.3590 H   0  0  0  0  0  0  0  0  0  0  0  0
  1  2  1  0  0  0  0
  2  3  2  0  0  0  0
  2  4  1  0  0  0  0
  3  5  1  0  0  0  0
  3  6  1  0  0  0  0
  4  7  2  0  0  0  0
  5  8  1  0  0  0  0
  6  9  2  0  0  0  0
  6 10  1  0  0  0  0
  7 11  1  0  0  0  0
 10 12  1  0  0  0  0
 12 13  1  0  0  0  0
 12 14  1  0  0  0  0
 13 15  2  0  0  0  0
 13 16  1  0  0  0  0
 14 17  1  0  0  0  0
 16 18  1  0  0  0  0
 18 19  1  0  0  0  0
 19 20  1  0  0  0  0
 20 21  1  0  0  0  0
 20 22  1  0  0  0  0
 21 23  1  0  0  0  0
 22 24  1  0  0  0  0
 23 25  2  0  0  0  0
  7  9  1  0  0  0  0
 17 18  1  0  0  0  0
 23 24  1  0  0  0  0
  4 26  1  0  0  0  0
  8 27  1  0  0  0  0
  8 28  1  0  0  0  0
  8 29  1  0  0  0  0
  9 30  1  0  0  0  0
 10 31  1  0  0  0  0
 10 32  1  0  0  0  0
 14 33  1  0  0  0  0
 14 34  1  0  0  0  0
 16 35  1  0  0  0  0
 16 36  1  0  0  0  0
 17 37  1  0  0  0  0
 17 38  1  0  0  0  0
 19 39  1  0  0  0  0
 19 40  1  0  0  0  0
 20 41  1  0  0  0  0
 21 42  1  0  0  0  0
 22 43  1  0  0  0  0
 22 44  1  0  0  0  0
 24 45  1  0  0  0  0
 24 46  1  0  0  0  0
 18 47  1  0  0  0  0
M  CHG  1  18   1
M  END
> <BIOSOLVEIT.HYDE_ESTIMATED_AFFINITY_LOWER_BOUNDARY [nM]>
237122213.657265

> <BIOSOLVEIT.HYDE_ESTIMATED_AFFINITY_UPPER_BOUNDARY [nM]>
23559493904.330536

> <BIOSOLVEIT.HYDE_LIGAND_EFFICIENCY range: ++, +, 0, -, -->
--

> <BIOSOLVEIT.HYDE_LIGAND_LIPOPHILIC_EFFICIENCY range: ++, +, 0, -, -->
--

> <BIOSOLVEIT.INTER_CLASH range: red, yellow, green>
green

> <BIOSOLVEIT.INTRA_CLASH range: red, yellow, green>
green

> <BIOSOLVEIT.LOGP>
0.5077

> <BIOSOLVEIT.MOLECULAR WEIGHT>
387.285

> <BIOSOLVEIT.MOLECULE_CHECKSUM>
Mi4xMzIzNDsw

> <BIOSOLVEIT.TORSION_QUALITY range: red, yellow, green, not rotatable>
green

> <BIOSOLVEIT.TPSA>
63.08

> <BIOSOLVEIT.SEESAR_FAVORITE>
favorite

> <smc_score>
0.688

> <QED_score>
0.84

> <distance>
0.765

> <SimilarityPheSA_1>
0.631

> <Smiles>
COc1c(Cl)cc(Cl)cc1CN1CCN(CC2CCC(=O)N2)CC1=O

> <Similarity_SkelSpheres>
0.604

> <Cluster No>
203.0

> <QueryID>
JAN-GHE-5a013bed-2

> <SimilarityPheSA>
0.631

> <Postera series>
3-aminopyridine-like

> <PDB_code>
Mpro-x10466

> <Approach>
DGM_focussed_RL

> <ID>
20210618_400

> <SimilarityPheSA_2>
0.644

> <OPTIBRIUM.logD>
0.788254

> <OPTIBRIUM.BBB category>
-

> <OPTIBRIUM.logP>
1.50039

> <OPTIBRIUM.P-gp category>
yes

> <OPTIBRIUM.logS>
3.38587

> <OPTIBRIUM.HIA category>
+

> <OPTIBRIUM.PPB90 category>
low

> <OPTIBRIUM.2D6 affinity category>
medium

> <OPTIBRIUM.hERG pIC50>
4.50247

> <OPTIBRIUM.2C9 pKi>
4.80368

> <OPTIBRIUM.BBB log([brain]:[blood])>
-0.289365

> <OPTIBRIUM.logS @ pH7.4>
2.88055

$$$$
Compound 409_1_04
haSeeSAR  07122114523D 1   1.00000     0.00000     0
SeeSAR 11.0.2 hazemaj
 47 50  0  0  0  0            999 V2000
   16.1211  -15.2747   -1.0844 Cl  0  0  0  0  0  0  0  0  0  0  0  0
   16.0633  -16.8689   -0.2962 C   0  0  0  0  0  0  0  0  0  0  0  0
   15.4853  -17.0176    0.9600 C   0  0  0  0  0  0  0  0  0  0  0  0
   16.6050  -17.9716   -0.9486 C   0  0  0  0  0  0  0  0  0  0  0  0
   15.4483  -18.2705    1.5627 C   0  0  0  0  0  0  0  0  0  0  0  0
   14.8944  -15.8123    1.6735 C   0  0  0  0  0  0  0  0  0  0  0  0
   16.5620  -19.2195   -0.3354 C   0  0  0  0  0  0  0  0  0  0  0  0
   15.9857  -19.3805    0.9200 C   0  0  0  0  0  0  0  0  0  0  0  0
   15.8701  -15.2879    2.6399 N   0  3  2  0  0  0  0  0  0  0  0  0
   17.2537  -20.6323   -1.1682 Cl  0  0  0  0  0  0  0  0  0  0  0  0
   15.1799  -15.1188    3.9287 C   0  0  0  0  0  0  0  0  0  0  0  0
   16.4414  -14.0055    2.1986 C   0  0  0  0  0  0  0  0  0  0  0  0
   15.8240  -14.0247    4.7646 C   0  0  0  0  0  0  0  0  0  0  0  0
   15.5629  -12.8271    2.5896 C   0  0  0  0  0  0  0  0  0  0  0  0
   15.6242  -12.7504    4.0568 N   0  0  0  0  0  0  0  0  0  0  0  0
   15.4980  -11.5386    4.7288 C   0  0  0  0  0  0  0  0  0  0  0  0
   16.2283  -10.5924    4.4342 O   0  0  0  0  0  0  0  0  0  0  0  0
   14.5048  -11.3901    5.7778 C   0  0  0  0  0  0  0  0  0  0  0  0
   14.7557  -11.7060    7.1127 C   0  0  0  0  0  0  0  0  0  0  0  0
   13.2509  -10.9068    5.4172 C   0  0  0  0  0  0  0  0  0  0  0  0
   13.7517  -11.5345    8.0607 C   0  0  0  0  0  0  0  0  0  0  0  0
   15.9862  -12.1943    7.5482 C   0  0  0  0  0  0  0  0  0  0  0  0
   12.2989  -10.7496    6.3495 N   0  0  0  0  0  0  0  0  0  0  0  0
   12.5187  -11.0473    7.6390 C   0  0  0  0  0  0  0  0  0  0  0  0
   13.9819  -11.8444    9.3971 C   0  0  0  0  0  0  0  0  0  0  0  0
   16.2281  -12.5079    8.8815 C   0  0  0  0  0  0  0  0  0  0  0  0
   15.2149  -12.3316    9.8181 C   0  0  0  0  0  0  0  0  0  0  0  0
   17.4218  -12.9717    9.2396 F   0  0  0  0  0  0  0  0  0  0  0  0
   17.0220  -17.8680   -1.8516 H   0  0  0  0  0  0  0  0  0  0  0  0
   15.0317  -18.3741    2.4658 H   0  0  0  0  0  0  0  0  0  0  0  0
   14.0616  -16.0853    2.1553 H   0  0  0  0  0  0  0  0  0  0  0  0
   14.6744  -15.1031    1.0037 H   0  0  0  0  0  0  0  0  0  0  0  0
   15.9581  -20.2810    1.3541 H   0  0  0  0  0  0  0  0  0  0  0  0
   15.2198  -15.9805    4.4345 H   0  0  0  0  0  0  0  0  0  0  0  0
   14.2248  -14.8771    3.7569 H   0  0  0  0  0  0  0  0  0  0  0  0
   16.5380  -14.0203    1.2034 H   0  0  0  0  0  0  0  0  0  0  0  0
   17.3414  -13.8911    2.6193 H   0  0  0  0  0  0  0  0  0  0  0  0
   16.8015  -14.2069    4.8704 H   0  0  0  0  0  0  0  0  0  0  0  0
   15.3928  -13.9856    5.6661 H   0  0  0  0  0  0  0  0  0  0  0  0
   14.6217  -12.9793    2.2880 H   0  0  0  0  0  0  0  0  0  0  0  0
   15.9112  -11.9830    2.1821 H   0  0  0  0  0  0  0  0  0  0  0  0
   13.0592  -10.6768    4.4630 H   0  0  0  0  0  0  0  0  0  0  0  0
   16.7192  -12.3233    6.8802 H   0  0  0  0  0  0  0  0  0  0  0  0
   11.7857  -10.9172    8.3068 H   0  0  0  0  0  0  0  0  0  0  0  0
   13.2496  -11.7149   10.0657 H   0  0  0  0  0  0  0  0  0  0  0  0
   15.3708  -12.5520   10.7809 H   0  0  0  0  0  0  0  0  0  0  0  0
   16.6088  -15.9529    2.7506 H   0  0  0  0  0  0  0  0  0  0  0  0
  1  2  1  0  0  0  0
  2  3  2  0  0  0  0
  2  4  1  0  0  0  0
  3  5  1  0  0  0  0
  3  6  1  0  0  0  0
  4  7  2  0  0  0  0
  5  8  2  0  0  0  0
  6  9  1  0  0  0  0
  7 10  1  0  0  0  0
  9 11  1  0  0  0  0
  9 12  1  0  0  0  0
 11 13  1  0  0  0  0
 12 14  1  0  0  0  0
 13 15  1  0  0  0  0
 15 16  1  0  0  0  0
 16 17  2  0  0  0  0
 16 18  1  0  0  0  0
 18 19  1  0  0  0  0
 18 20  2  0  0  0  0
 19 21  1  0  0  0  0
 19 22  2  0  0  0  0
 20 23  1  0  0  0  0
 21 24  1  0  0  0  0
 21 25  2  0  0  0  0
 22 26  1  0  0  0  0
 25 27  1  0  0  0  0
 26 28  1  0  0  0  0
  7  8  1  0  0  0  0
 14 15  1  0  0  0  0
 23 24  2  0  0  0  0
 26 27  2  0  0  0  0
  4 29  1  0  0  0  0
  5 30  1  0  0  0  0
  6 31  1  0  0  0  0
  6 32  1  0  0  0  0
  8 33  1  0  0  0  0
 11 34  1  0  0  0  0
 11 35  1  0  0  0  0
 12 36  1  0  0  0  0
 12 37  1  0  0  0  0
 13 38  1  0  0  0  0
 13 39  1  0  0  0  0
 14 40  1  0  0  0  0
 14 41  1  0  0  0  0
 20 42  1  0  0  0  0
 22 43  1  0  0  0  0
 24 44  1  0  0  0  0
 25 45  1  0  0  0  0
 27 46  1  0  0  0  0
  9 47  1  0  0  0  0
M  CHG  1   9   1
M  END
> <BIOSOLVEIT.HYDE_ESTIMATED_AFFINITY_LOWER_BOUNDARY [nM]>
2850176.487706

> <BIOSOLVEIT.HYDE_ESTIMATED_AFFINITY_UPPER_BOUNDARY [nM]>
283181885.630629

> <BIOSOLVEIT.HYDE_LIGAND_EFFICIENCY range: ++, +, 0, -, -->
--

> <BIOSOLVEIT.HYDE_LIGAND_LIPOPHILIC_EFFICIENCY range: ++, +, 0, -, -->
--

> <BIOSOLVEIT.INTER_CLASH range: red, yellow, green>
green

> <BIOSOLVEIT.INTRA_CLASH range: red, yellow, green>
green

> <BIOSOLVEIT.LOGP>
3.2216

> <BIOSOLVEIT.MOLECULAR WEIGHT>
419.305

> <BIOSOLVEIT.MOLECULE_CHECKSUM>
LTguODI3NjI7MC4zMTUyNzI=

> <BIOSOLVEIT.TORSION_QUALITY range: red, yellow, green, not rotatable>
yellow

> <BIOSOLVEIT.TPSA>
37.64

> <BIOSOLVEIT.SEESAR_FAVORITE>
favorite

> <smc_score>
0.688

> <QED_score>
0.622

> <distance>
0.524

> <SimilarityPheSA_1>
0.697

> <Smiles>
O=C(c1cncc2ccc(F)cc12)N1CCN(Cc2ccc(Cl)cc2Cl)CC1

> <Similarity_SkelSpheres>
0.768

> <Cluster No>
209.0

> <QueryID>
MAR-UCB-f313ec4d-2

> <SimilarityPheSA>
0.6965

> <Postera series>
None

> <PDB_code>
Mpro-x11813

> <Approach>
DGM_focussed_RL

> <ID>
20210618_408

> <SimilarityPheSA_2>
0.806

> <OPTIBRIUM.logD>
2.69479

> <OPTIBRIUM.BBB category>
+

> <OPTIBRIUM.logP>
2.83885

> <OPTIBRIUM.P-gp category>
yes

> <OPTIBRIUM.logS>
1.55237

> <OPTIBRIUM.HIA category>
+

> <OPTIBRIUM.PPB90 category>
high

> <OPTIBRIUM.2D6 affinity category>
medium

> <OPTIBRIUM.hERG pIC50>
5.96497

> <OPTIBRIUM.2C9 pKi>
5.78748

> <OPTIBRIUM.BBB log([brain]:[blood])>
-0.29566

> <OPTIBRIUM.logS @ pH7.4>
1.48537

$$$$
Compound 409_1_08
haSeeSAR  07122114523D 1   1.00000     0.00000     0
SeeSAR 11.0.2 hazemaj
 47 50  0  0  0  0            999 V2000
   19.3748  -17.7975    4.1241 Cl  0  0  0  0  0  0  0  0  0  0  0  0
   17.7661  -18.5441    4.2667 C   0  0  0  0  0  0  0  0  0  0  0  0
   16.6502  -17.9366    3.7010 C   0  0  0  0  0  0  0  0  0  0  0  0
   17.6314  -19.7463    4.9536 C   0  0  0  0  0  0  0  0  0  0  0  0
   15.3997  -18.5330    3.8218 C   0  0  0  0  0  0  0  0  0  0  0  0
   16.7973  -16.6223    2.9513 C   0  0  0  0  0  0  0  0  0  0  0  0
   16.3752  -20.3330    5.0678 C   0  0  0  0  0  0  0  0  0  0  0  0
   15.2526  -19.7352    4.5053 C   0  0  0  0  0  0  0  0  0  0  0  0
   16.5818  -15.5033    3.8780 N   0  3  2  0  0  0  0  0  0  0  0  0
   16.2001  -21.8714    5.9454 Cl  0  0  0  0  0  0  0  0  0  0  0  0
   15.1792  -15.0702    3.7408 C   0  0  0  0  0  0  0  0  0  0  0  0
   17.5709  -14.4573    3.5611 C   0  0  0  0  0  0  0  0  0  0  0  0
   14.9819  -13.9556    4.7536 C   0  0  0  0  0  0  0  0  0  0  0  0
   16.9795  -13.0562    3.4542 C   0  0  0  0  0  0  0  0  0  0  0  0
   15.8476  -12.8292    4.3696 N   0  0  0  0  0  0  0  0  0  0  0  0
   15.5713  -11.5655    4.8821 C   0  0  0  0  0  0  0  0  0  0  0  0
   16.1993  -10.5868    4.4782 O   0  0  0  0  0  0  0  0  0  0  0  0
   14.5425  -11.4012    5.8936 C   0  0  0  0  0  0  0  0  0  0  0  0
   14.7429  -11.7083    7.2391 C   0  0  0  0  0  0  0  0  0  0  0  0
   13.3061  -10.9115    5.4845 C   0  0  0  0  0  0  0  0  0  0  0  0
   13.7070  -11.5217    8.1490 C   0  0  0  0  0  0  0  0  0  0  0  0
   15.9531  -12.2023    7.7221 C   0  0  0  0  0  0  0  0  0  0  0  0
   12.3225  -10.7397    6.3808 N   0  0  0  0  0  0  0  0  0  0  0  0
   12.4936  -11.0288    7.6797 C   0  0  0  0  0  0  0  0  0  0  0  0
   13.8867  -11.8227    9.4952 C   0  0  0  0  0  0  0  0  0  0  0  0
   16.1447  -12.5072    9.0657 C   0  0  0  0  0  0  0  0  0  0  0  0
   15.1000  -12.3157    9.9638 C   0  0  0  0  0  0  0  0  0  0  0  0
   17.3212  -12.9770    9.4699 F   0  0  0  0  0  0  0  0  0  0  0  0
   18.4316  -20.1853    5.3622 H   0  0  0  0  0  0  0  0  0  0  0  0
   14.5994  -18.0937    3.4136 H   0  0  0  0  0  0  0  0  0  0  0  0
   16.1213  -16.5807    2.2156 H   0  0  0  0  0  0  0  0  0  0  0  0
   17.7167  -16.5611    2.5630 H   0  0  0  0  0  0  0  0  0  0  0  0
   14.3529  -20.1633    4.5911 H   0  0  0  0  0  0  0  0  0  0  0  0
   14.5603  -15.8309    3.9367 H   0  0  0  0  0  0  0  0  0  0  0  0
   15.0092  -14.7322    2.8151 H   0  0  0  0  0  0  0  0  0  0  0  0
   18.0002  -14.6850    2.6871 H   0  0  0  0  0  0  0  0  0  0  0  0
   18.2644  -14.4517    4.2816 H   0  0  0  0  0  0  0  0  0  0  0  0
   15.2316  -14.2790    5.6663 H   0  0  0  0  0  0  0  0  0  0  0  0
   14.0256  -13.6632    4.7536 H   0  0  0  0  0  0  0  0  0  0  0  0
   16.6620  -12.9166    2.5162 H   0  0  0  0  0  0  0  0  0  0  0  0
   17.6966  -12.3922    3.6656 H   0  0  0  0  0  0  0  0  0  0  0  0
   13.1504  -10.6876    4.5224 H   0  0  0  0  0  0  0  0  0  0  0  0
   16.7086  -12.3421    7.0819 H   0  0  0  0  0  0  0  0  0  0  0  0
   11.7382  -10.8879    8.3197 H   0  0  0  0  0  0  0  0  0  0  0  0
   13.1319  -11.6825   10.1360 H   0  0  0  0  0  0  0  0  0  0  0  0
   15.2196  -12.5296   10.9334 H   0  0  0  0  0  0  0  0  0  0  0  0
   16.7337  -15.8219    4.8137 H   0  0  0  0  0  0  0  0  0  0  0  0
  1  2  1  0  0  0  0
  2  3  2  0  0  0  0
  2  4  1  0  0  0  0
  3  5  1  0  0  0  0
  3  6  1  0  0  0  0
  4  7  2  0  0  0  0
  5  8  2  0  0  0  0
  6  9  1  0  0  0  0
  7 10  1  0  0  0  0
  9 11  1  0  0  0  0
  9 12  1  0  0  0  0
 11 13  1  0  0  0  0
 12 14  1  0  0  0  0
 13 15  1  0  0  0  0
 15 16  1  0  0  0  0
 16 17  2  0  0  0  0
 16 18  1  0  0  0  0
 18 19  1  0  0  0  0
 18 20  2  0  0  0  0
 19 21  1  0  0  0  0
 19 22  2  0  0  0  0
 20 23  1  0  0  0  0
 21 24  1  0  0  0  0
 21 25  2  0  0  0  0
 22 26  1  0  0  0  0
 25 27  1  0  0  0  0
 26 28  1  0  0  0  0
  7  8  1  0  0  0  0
 14 15  1  0  0  0  0
 23 24  2  0  0  0  0
 26 27  2  0  0  0  0
  4 29  1  0  0  0  0
  5 30  1  0  0  0  0
  6 31  1  0  0  0  0
  6 32  1  0  0  0  0
  8 33  1  0  0  0  0
 11 34  1  0  0  0  0
 11 35  1  0  0  0  0
 12 36  1  0  0  0  0
 12 37  1  0  0  0  0
 13 38  1  0  0  0  0
 13 39  1  0  0  0  0
 14 40  1  0  0  0  0
 14 41  1  0  0  0  0
 20 42  1  0  0  0  0
 22 43  1  0  0  0  0
 24 44  1  0  0  0  0
 25 45  1  0  0  0  0
 27 46  1  0  0  0  0
  9 47  1  0  0  0  0
M  CHG  1   9   1
M  END
> <BIOSOLVEIT.HYDE_ESTIMATED_AFFINITY_LOWER_BOUNDARY [nM]>
44708021.493218

> <BIOSOLVEIT.HYDE_ESTIMATED_AFFINITY_UPPER_BOUNDARY [nM]>
4442006270.094062

> <BIOSOLVEIT.HYDE_LIGAND_EFFICIENCY range: ++, +, 0, -, -->
--

> <BIOSOLVEIT.HYDE_LIGAND_LIPOPHILIC_EFFICIENCY range: ++, +, 0, -, -->
--

> <BIOSOLVEIT.INTER_CLASH range: red, yellow, green>
green

> <BIOSOLVEIT.INTRA_CLASH range: red, yellow, green>
green

> <BIOSOLVEIT.LOGP>
3.2216

> <BIOSOLVEIT.MOLECULAR WEIGHT>
419.305

> <BIOSOLVEIT.MOLECULE_CHECKSUM>
LTIuMDAzNjE7MC4wNzE1NTc2

> <BIOSOLVEIT.TORSION_QUALITY range: red, yellow, green, not rotatable>
green

> <BIOSOLVEIT.TPSA>
37.64

> <BIOSOLVEIT.SEESAR_FAVORITE>
favorite

> <smc_score>
0.688

> <QED_score>
0.622

> <distance>
0.524

> <SimilarityPheSA_1>
0.697

> <Smiles>
O=C(c1cncc2ccc(F)cc12)N1CCN(Cc2ccc(Cl)cc2Cl)CC1

> <Similarity_SkelSpheres>
0.768

> <Cluster No>
209.0

> <QueryID>
MAR-UCB-f313ec4d-2

> <SimilarityPheSA>
0.6965

> <Postera series>
None

> <PDB_code>
Mpro-x11813

> <Approach>
DGM_focussed_RL

> <ID>
20210618_408

> <SimilarityPheSA_2>
0.806

> <OPTIBRIUM.logD>
2.69479

> <OPTIBRIUM.BBB category>
+

> <OPTIBRIUM.logP>
2.83885

> <OPTIBRIUM.P-gp category>
yes

> <OPTIBRIUM.logS>
1.55237

> <OPTIBRIUM.HIA category>
+

> <OPTIBRIUM.PPB90 category>
high

> <OPTIBRIUM.2D6 affinity category>
medium

> <OPTIBRIUM.hERG pIC50>
5.96497

> <OPTIBRIUM.2C9 pKi>
5.78748

> <OPTIBRIUM.BBB log([brain]:[blood])>
-0.29566

> <OPTIBRIUM.logS @ pH7.4>
1.48537

$$$$
Compound 409_1_10
haSeeSAR  07122114523D 1   1.00000     0.00000     0
SeeSAR 11.0.2 hazemaj
 47 50  0  0  0  0            999 V2000
   19.3760  -17.7961    4.1238 Cl  0  0  0  0  0  0  0  0  0  0  0  0
   17.7675  -18.5433    4.2672 C   0  0  0  0  0  0  0  0  0  0  0  0
   16.6512  -17.9363    3.7017 C   0  0  0  0  0  0  0  0  0  0  0  0
   17.6336  -19.7452    4.9546 C   0  0  0  0  0  0  0  0  0  0  0  0
   15.4010  -18.5333    3.8232 C   0  0  0  0  0  0  0  0  0  0  0  0
   16.7976  -16.6222    2.9515 C   0  0  0  0  0  0  0  0  0  0  0  0
   16.3776  -20.3323    5.0693 C   0  0  0  0  0  0  0  0  0  0  0  0
   15.2546  -19.7352    4.5070 C   0  0  0  0  0  0  0  0  0  0  0  0
   16.5828  -15.5030    3.8781 N   0  3  2  0  0  0  0  0  0  0  0  0
   16.2033  -21.8706    5.9476 Cl  0  0  0  0  0  0  0  0  0  0  0  0
   15.1797  -15.0709    3.7429 C   0  0  0  0  0  0  0  0  0  0  0  0
   17.5708  -14.4566    3.5592 C   0  0  0  0  0  0  0  0  0  0  0  0
   14.9834  -13.9560    4.7556 C   0  0  0  0  0  0  0  0  0  0  0  0
   16.9783  -13.0559    3.4526 C   0  0  0  0  0  0  0  0  0  0  0  0
   15.8478  -12.8292    4.3697 N   0  0  0  0  0  0  0  0  0  0  0  0
   15.5716  -11.5656    4.8823 C   0  0  0  0  0  0  0  0  0  0  0  0
   16.1995  -10.5868    4.4784 O   0  0  0  0  0  0  0  0  0  0  0  0
   14.5426  -11.4012    5.8937 C   0  0  0  0  0  0  0  0  0  0  0  0
   14.7429  -11.7083    7.2392 C   0  0  0  0  0  0  0  0  0  0  0  0
   13.3062  -10.9115    5.4846 C   0  0  0  0  0  0  0  0  0  0  0  0
   13.7069  -11.5217    8.1492 C   0  0  0  0  0  0  0  0  0  0  0  0
   15.9532  -12.2024    7.7224 C   0  0  0  0  0  0  0  0  0  0  0  0
   12.3225  -10.7397    6.3808 N   0  0  0  0  0  0  0  0  0  0  0  0
   12.4937  -11.0288    7.6798 C   0  0  0  0  0  0  0  0  0  0  0  0
   13.8867  -11.8227    9.4953 C   0  0  0  0  0  0  0  0  0  0  0  0
   16.1447  -12.5072    9.0660 C   0  0  0  0  0  0  0  0  0  0  0  0
   15.0999  -12.3157    9.9641 C   0  0  0  0  0  0  0  0  0  0  0  0
   17.3211  -12.9771    9.4702 F   0  0  0  0  0  0  0  0  0  0  0  0
   18.4340  -20.1838    5.3631 H   0  0  0  0  0  0  0  0  0  0  0  0
   14.6004  -18.0945    3.4151 H   0  0  0  0  0  0  0  0  0  0  0  0
   16.1208  -16.5809    2.2164 H   0  0  0  0  0  0  0  0  0  0  0  0
   17.7167  -16.5611    2.5623 H   0  0  0  0  0  0  0  0  0  0  0  0
   14.3552  -20.1637    4.5933 H   0  0  0  0  0  0  0  0  0  0  0  0
   14.5616  -15.8318    3.9401 H   0  0  0  0  0  0  0  0  0  0  0  0
   15.0081  -14.7334    2.8174 H   0  0  0  0  0  0  0  0  0  0  0  0
   17.9988  -14.6844    2.6846 H   0  0  0  0  0  0  0  0  0  0  0  0
   18.2654  -14.4503    4.2786 H   0  0  0  0  0  0  0  0  0  0  0  0
   15.2347  -14.2789    5.6681 H   0  0  0  0  0  0  0  0  0  0  0  0
   14.0269  -13.6642    4.7572 H   0  0  0  0  0  0  0  0  0  0  0  0
   16.6592  -12.9169    2.5152 H   0  0  0  0  0  0  0  0  0  0  0  0
   17.6954  -12.3913    3.6628 H   0  0  0  0  0  0  0  0  0  0  0  0
   13.1506  -10.6876    4.5224 H   0  0  0  0  0  0  0  0  0  0  0  0
   16.7086  -12.3421    7.0822 H   0  0  0  0  0  0  0  0  0  0  0  0
   11.7382  -10.8879    8.3197 H   0  0  0  0  0  0  0  0  0  0  0  0
   13.1318  -11.6824   10.1361 H   0  0  0  0  0  0  0  0  0  0  0  0
   15.2194  -12.5297   10.9336 H   0  0  0  0  0  0  0  0  0  0  0  0
   16.7364  -15.8212    4.8136 H   0  0  0  0  0  0  0  0  0  0  0  0
  1  2  1  0  0  0  0
  2  3  2  0  0  0  0
  2  4  1  0  0  0  0
  3  5  1  0  0  0  0
  3  6  1  0  0  0  0
  4  7  2  0  0  0  0
  5  8  2  0  0  0  0
  6  9  1  0  0  0  0
  7 10  1  0  0  0  0
  9 11  1  0  0  0  0
  9 12  1  0  0  0  0
 11 13  1  0  0  0  0
 12 14  1  0  0  0  0
 13 15  1  0  0  0  0
 15 16  1  0  0  0  0
 16 17  2  0  0  0  0
 16 18  1  0  0  0  0
 18 19  1  0  0  0  0
 18 20  2  0  0  0  0
 19 21  1  0  0  0  0
 19 22  2  0  0  0  0
 20 23  1  0  0  0  0
 21 24  1  0  0  0  0
 21 25  2  0  0  0  0
 22 26  1  0  0  0  0
 25 27  1  0  0  0  0
 26 28  1  0  0  0  0
  7  8  1  0  0  0  0
 14 15  1  0  0  0  0
 23 24  2  0  0  0  0
 26 27  2  0  0  0  0
  4 29  1  0  0  0  0
  5 30  1  0  0  0  0
  6 31  1  0  0  0  0
  6 32  1  0  0  0  0
  8 33  1  0  0  0  0
 11 34  1  0  0  0  0
 11 35  1  0  0  0  0
 12 36  1  0  0  0  0
 12 37  1  0  0  0  0
 13 38  1  0  0  0  0
 13 39  1  0  0  0  0
 14 40  1  0  0  0  0
 14 41  1  0  0  0  0
 20 42  1  0  0  0  0
 22 43  1  0  0  0  0
 24 44  1  0  0  0  0
 25 45  1  0  0  0  0
 27 46  1  0  0  0  0
  9 47  1  0  0  0  0
M  CHG  1   9   1
M  END
> <BIOSOLVEIT.HYDE_ESTIMATED_AFFINITY_LOWER_BOUNDARY [nM]>
45304004.541760

> <BIOSOLVEIT.HYDE_ESTIMATED_AFFINITY_UPPER_BOUNDARY [nM]>
4501220709.697386

> <BIOSOLVEIT.HYDE_LIGAND_EFFICIENCY range: ++, +, 0, -, -->
--

> <BIOSOLVEIT.HYDE_LIGAND_LIPOPHILIC_EFFICIENCY range: ++, +, 0, -, -->
--

> <BIOSOLVEIT.INTER_CLASH range: red, yellow, green>
green

> <BIOSOLVEIT.INTRA_CLASH range: red, yellow, green>
green

> <BIOSOLVEIT.LOGP>
3.2216

> <BIOSOLVEIT.MOLECULAR WEIGHT>
419.305

> <BIOSOLVEIT.MOLECULE_CHECKSUM>
LTEuOTcwNzg7MC4wNzAzODUy

> <BIOSOLVEIT.TORSION_QUALITY range: red, yellow, green, not rotatable>
green

> <BIOSOLVEIT.TPSA>
37.64

> <BIOSOLVEIT.SEESAR_FAVORITE>
favorite

> <smc_score>
0.688

> <QED_score>
0.622

> <distance>
0.524

> <SimilarityPheSA_1>
0.697

> <Smiles>
O=C(c1cncc2ccc(F)cc12)N1CCN(Cc2ccc(Cl)cc2Cl)CC1

> <Similarity_SkelSpheres>
0.768

> <Cluster No>
209.0

> <QueryID>
MAR-UCB-f313ec4d-2

> <SimilarityPheSA>
0.6965

> <Postera series>
None

> <PDB_code>
Mpro-x11813

> <Approach>
DGM_focussed_RL

> <ID>
20210618_408

> <SimilarityPheSA_2>
0.806

> <OPTIBRIUM.logD>
2.69479

> <OPTIBRIUM.BBB category>
+

> <OPTIBRIUM.logP>
2.83885

> <OPTIBRIUM.P-gp category>
yes

> <OPTIBRIUM.logS>
1.55237

> <OPTIBRIUM.HIA category>
+

> <OPTIBRIUM.PPB90 category>
high

> <OPTIBRIUM.2D6 affinity category>
medium

> <OPTIBRIUM.hERG pIC50>
5.96497

> <OPTIBRIUM.2C9 pKi>
5.78748

> <OPTIBRIUM.BBB log([brain]:[blood])>
-0.29566

> <OPTIBRIUM.logS @ pH7.4>
1.48537

$$$$
Compound 440_1_01
haSeeSAR  07122114523D 1   1.00000     0.00000     0
SeeSAR 11.0.2 hazemaj
 42 44  0  0  0  0            999 V2000
   16.6367  -11.5701   -1.2032 Cl  0  0  0  0  0  0  0  0  0  0  0  0
   16.4373  -12.7088    0.1502 C   0  0  0  0  0  0  0  0  0  0  0  0
   15.7728  -13.9128   -0.0563 C   0  0  0  0  0  0  0  0  0  0  0  0
   16.9524  -12.3742    1.3975 C   0  0  0  0  0  0  0  0  0  0  0  0
   15.6277  -14.7891    1.0141 C   0  0  0  0  0  0  0  0  0  0  0  0
   16.7936  -13.2684    2.4511 C   0  0  0  0  0  0  0  0  0  0  0  0
   14.7788  -16.3331    0.7625 Cl  0  0  0  0  0  0  0  0  0  0  0  0
   16.1327  -14.4792    2.2722 C   0  0  0  0  0  0  0  0  0  0  0  0
   17.3488  -12.9231    3.8225 C   0  0  0  0  0  0  0  0  0  0  0  0
   16.2395  -12.7548    4.7722 N   0  0  0  0  0  0  0  0  0  0  0  0
   15.7518  -11.5487    5.0129 C   0  0  0  0  0  0  0  0  0  0  0  0
   16.2271  -10.5673    4.4417 O   0  0  0  0  0  0  0  0  0  0  0  0
   14.6560  -11.3826    5.9509 C   0  0  0  0  0  0  0  0  0  0  0  0
   14.7698  -11.6585    7.3136 C   0  0  0  0  0  0  0  0  0  0  0  0
   13.4387  -10.9279    5.4559 C   0  0  0  0  0  0  0  0  0  0  0  0
   13.6723  -11.4734    8.1482 C   0  0  0  0  0  0  0  0  0  0  0  0
   15.9540  -12.1199    7.8858 C   0  0  0  0  0  0  0  0  0  0  0  0
   12.3937  -10.7567    6.2791 N   0  0  0  0  0  0  0  0  0  0  0  0
   12.4823  -11.0151    7.5920 C   0  0  0  0  0  0  0  0  0  0  0  0
   13.7383  -11.7350    9.5129 C   0  0  0  0  0  0  0  0  0  0  0  0
   16.0505  -12.3902    9.2452 C   0  0  0  0  0  0  0  0  0  0  0  0
   14.9359  -12.1940   10.0522 C   0  0  0  0  0  0  0  0  0  0  0  0
   17.2165  -12.8359    9.7554 O   0  0  0  0  0  0  0  0  0  0  0  0
   15.0448  -12.4591   11.3703 O   0  0  0  0  0  0  0  0  0  0  0  0
   18.3328  -13.0407    8.9020 C   0  0  0  0  0  0  0  0  0  0  0  0
   14.1091  -13.3213   12.0008 C   0  0  0  0  0  0  0  0  0  0  0  0
   15.4062  -14.1442   -0.9574 H   0  0  0  0  0  0  0  0  0  0  0  0
   17.4289  -11.5057    1.5349 H   0  0  0  0  0  0  0  0  0  0  0  0
   16.0226  -15.1161    3.0352 H   0  0  0  0  0  0  0  0  0  0  0  0
   17.8712  -12.0721    3.7661 H   0  0  0  0  0  0  0  0  0  0  0  0
   17.9467  -13.6610    4.1356 H   0  0  0  0  0  0  0  0  0  0  0  0
   15.8533  -13.5521    5.2362 H   0  0  0  0  0  0  0  0  0  0  0  0
   13.3419  -10.7275    4.4810 H   0  0  0  0  0  0  0  0  0  0  0  0
   16.7545  -12.2600    7.3030 H   0  0  0  0  0  0  0  0  0  0  0  0
   11.6839  -10.8767    8.1780 H   0  0  0  0  0  0  0  0  0  0  0  0
   12.9383  -11.5956   10.0965 H   0  0  0  0  0  0  0  0  0  0  0  0
   19.1083  -13.3701    9.4407 H   0  0  0  0  0  0  0  0  0  0  0  0
   18.0995  -13.7183    8.2047 H   0  0  0  0  0  0  0  0  0  0  0  0
   18.5769  -12.1776    8.4597 H   0  0  0  0  0  0  0  0  0  0  0  0
   14.3360  -13.4072   12.9709 H   0  0  0  0  0  0  0  0  0  0  0  0
   13.1890  -12.9410   11.9061 H   0  0  0  0  0  0  0  0  0  0  0  0
   14.1432  -14.2228   11.5694 H   0  0  0  0  0  0  0  0  0  0  0  0
  1  2  1  0  0  0  0
  2  3  2  0  0  0  0
  2  4  1  0  0  0  0
  3  5  1  0  0  0  0
  4  6  2  0  0  0  0
  5  7  1  0  0  0  0
  5  8  2  0  0  0  0
  6  9  1  0  0  0  0
  9 10  1  0  0  0  0
 10 11  1  0  0  0  0
 11 12  2  0  0  0  0
 11 13  1  0  0  0  0
 13 14  1  0  0  0  0
 13 15  2  0  0  0  0
 14 16  1  0  0  0  0
 14 17  2  0  0  0  0
 15 18  1  0  0  0  0
 16 19  1  0  0  0  0
 16 20  2  0  0  0  0
 17 21  1  0  0  0  0
 20 22  1  0  0  0  0
 21 23  1  0  0  0  0
 22 24  1  0  0  0  0
 23 25  1  0  0  0  0
 24 26  1  0  0  0  0
  6  8  1  0  0  0  0
 18 19  2  0  0  0  0
 21 22  2  0  0  0  0
  3 27  1  0  0  0  0
  4 28  1  0  0  0  0
  8 29  1  0  0  0  0
  9 30  1  0  0  0  0
  9 31  1  0  0  0  0
 10 32  1  0  0  0  0
 15 33  1  0  0  0  0
 17 34  1  0  0  0  0
 19 35  1  0  0  0  0
 20 36  1  0  0  0  0
 25 37  1  0  0  0  0
 25 38  1  0  0  0  0
 25 39  1  0  0  0  0
 26 40  1  0  0  0  0
 26 41  1  0  0  0  0
 26 42  1  0  0  0  0
M  END
> <BIOSOLVEIT.HYDE_ESTIMATED_AFFINITY_LOWER_BOUNDARY [nM]>
298455.827496

> <BIOSOLVEIT.HYDE_ESTIMATED_AFFINITY_UPPER_BOUNDARY [nM]>
29653351.072242

> <BIOSOLVEIT.HYDE_LIGAND_EFFICIENCY range: ++, +, 0, -, -->
--

> <BIOSOLVEIT.HYDE_LIGAND_LIPOPHILIC_EFFICIENCY range: ++, +, 0, -, -->
--

> <BIOSOLVEIT.INTER_CLASH range: red, yellow, green>
green

> <BIOSOLVEIT.INTRA_CLASH range: red, yellow, green>
green

> <BIOSOLVEIT.LOGP>
4.4888

> <BIOSOLVEIT.MOLECULAR WEIGHT>
391.252

> <BIOSOLVEIT.MOLECULE_CHECKSUM>
LTE0LjQyMTQ7MC41NTQ2Nw==

> <BIOSOLVEIT.TORSION_QUALITY range: red, yellow, green, not rotatable>
yellow

> <BIOSOLVEIT.TPSA>
60.45

> <BIOSOLVEIT.SEESAR_FAVORITE>
favorite

> <smc_score>
0.688

> <QED_score>
0.696

> <distance>
0.542

> <SimilarityPheSA_1>
0.634

> <Smiles>
COc1cc2cncc(C(=O)NCc3cc(Cl)cc(Cl)c3)c2cc1OC

> <Similarity_SkelSpheres>
0.716

> <Cluster No>
228.0

> <QueryID>
MAT-POS-bb423b95-1

> <SimilarityPheSA>
0.6337

> <Postera series>
3-aminopyridine-like

> <PDB_code>
Mpro-x11542

> <Approach>
DGM_focussed_RL

> <ID>
20210618_439

> <SimilarityPheSA_2>
0.865

> <OPTIBRIUM.logD>
3.61053

> <OPTIBRIUM.BBB category>
-

> <OPTIBRIUM.logP>
3.61053

> <OPTIBRIUM.P-gp category>
no

> <OPTIBRIUM.logS>
0.571622

> <OPTIBRIUM.HIA category>
+

> <OPTIBRIUM.PPB90 category>
high

> <OPTIBRIUM.2D6 affinity category>
medium

> <OPTIBRIUM.hERG pIC50>
4.64747

> <OPTIBRIUM.2C9 pKi>
5.62145

> <OPTIBRIUM.BBB log([brain]:[blood])>
-0.214112

> <OPTIBRIUM.logS @ pH7.4>
0.571622

$$$$
Compound 440_1_02
haSeeSAR  07122114523D 1   1.00000     0.00000     0
SeeSAR 11.0.2 hazemaj
 42 44  0  0  0  0            999 V2000
   14.7703  -16.3258    0.7571 Cl  0  0  0  0  0  0  0  0  0  0  0  0
   15.6238  -14.7833    1.0031 C   0  0  0  0  0  0  0  0  0  0  0  0
   15.7770  -13.9044   -0.0636 C   0  0  0  0  0  0  0  0  0  0  0  0
   16.1252  -14.4811    2.2643 C   0  0  0  0  0  0  0  0  0  0  0  0
   16.4469  -12.7042    0.1494 C   0  0  0  0  0  0  0  0  0  0  0  0
   16.7911  -13.2741    2.4501 C   0  0  0  0  0  0  0  0  0  0  0  0
   16.6497  -11.5710   -1.2081 Cl  0  0  0  0  0  0  0  0  0  0  0  0
   16.9587  -12.3771    1.4003 C   0  0  0  0  0  0  0  0  0  0  0  0
   17.3468  -12.9234    3.8200 C   0  0  0  0  0  0  0  0  0  0  0  0
   16.2378  -12.7551    4.7702 N   0  0  0  0  0  0  0  0  0  0  0  0
   15.7505  -11.5490    5.0112 C   0  0  0  0  0  0  0  0  0  0  0  0
   16.2258  -10.5677    4.4398 O   0  0  0  0  0  0  0  0  0  0  0  0
   14.6552  -11.3827    5.9497 C   0  0  0  0  0  0  0  0  0  0  0  0
   14.7695  -11.6586    7.3123 C   0  0  0  0  0  0  0  0  0  0  0  0
   13.4377  -10.9277    5.4553 C   0  0  0  0  0  0  0  0  0  0  0  0
   13.6723  -11.4735    8.1474 C   0  0  0  0  0  0  0  0  0  0  0  0
   15.9539  -12.1203    7.8840 C   0  0  0  0  0  0  0  0  0  0  0  0
   12.3931  -10.7563    6.2790 N   0  0  0  0  0  0  0  0  0  0  0  0
   12.4823  -11.0148    7.5918 C   0  0  0  0  0  0  0  0  0  0  0  0
   13.7389  -11.7351    9.5121 C   0  0  0  0  0  0  0  0  0  0  0  0
   16.0509  -12.3906    9.2434 C   0  0  0  0  0  0  0  0  0  0  0  0
   14.9366  -12.1943   10.0508 C   0  0  0  0  0  0  0  0  0  0  0  0
   17.2171  -12.8366    9.7531 O   0  0  0  0  0  0  0  0  0  0  0  0
   15.0461  -12.4595   11.3689 O   0  0  0  0  0  0  0  0  0  0  0  0
   18.3327  -13.0427    8.8989 C   0  0  0  0  0  0  0  0  0  0  0  0
   14.1099  -13.3207   12.0000 C   0  0  0  0  0  0  0  0  0  0  0  0
   15.4125  -14.1311   -0.9667 H   0  0  0  0  0  0  0  0  0  0  0  0
   16.0091  -15.1204    3.0245 H   0  0  0  0  0  0  0  0  0  0  0  0
   17.4390  -11.5116    1.5427 H   0  0  0  0  0  0  0  0  0  0  0  0
   17.8670  -12.0714    3.7606 H   0  0  0  0  0  0  0  0  0  0  0  0
   17.9466  -13.6591    4.1347 H   0  0  0  0  0  0  0  0  0  0  0  0
   15.8517  -13.5522    5.2343 H   0  0  0  0  0  0  0  0  0  0  0  0
   13.3404  -10.7272    4.4804 H   0  0  0  0  0  0  0  0  0  0  0  0
   16.7541  -12.2606    7.3009 H   0  0  0  0  0  0  0  0  0  0  0  0
   11.6842  -10.8764    8.1782 H   0  0  0  0  0  0  0  0  0  0  0  0
   12.9392  -11.5955   10.0960 H   0  0  0  0  0  0  0  0  0  0  0  0
   19.1083  -13.3721    9.4373 H   0  0  0  0  0  0  0  0  0  0  0  0
   18.0983  -13.7209    8.2024 H   0  0  0  0  0  0  0  0  0  0  0  0
   18.5769  -12.1802    8.4557 H   0  0  0  0  0  0  0  0  0  0  0  0
   14.3375  -13.4068   12.9700 H   0  0  0  0  0  0  0  0  0  0  0  0
   13.1902  -12.9395   11.9059 H   0  0  0  0  0  0  0  0  0  0  0  0
   14.1429  -14.2222   11.5686 H   0  0  0  0  0  0  0  0  0  0  0  0
  1  2  1  0  0  0  0
  2  3  2  0  0  0  0
  2  4  1  0  0  0  0
  3  5  1  0  0  0  0
  4  6  2  0  0  0  0
  5  7  1  0  0  0  0
  5  8  2  0  0  0  0
  6  9  1  0  0  0  0
  9 10  1  0  0  0  0
 10 11  1  0  0  0  0
 11 12  2  0  0  0  0
 11 13  1  0  0  0  0
 13 14  1  0  0  0  0
 13 15  2  0  0  0  0
 14 16  1  0  0  0  0
 14 17  2  0  0  0  0
 15 18  1  0  0  0  0
 16 19  1  0  0  0  0
 16 20  2  0  0  0  0
 17 21  1  0  0  0  0
 20 22  1  0  0  0  0
 21 23  1  0  0  0  0
 22 24  1  0  0  0  0
 23 25  1  0  0  0  0
 24 26  1  0  0  0  0
  6  8  1  0  0  0  0
 18 19  2  0  0  0  0
 21 22  2  0  0  0  0
  3 27  1  0  0  0  0
  4 28  1  0  0  0  0
  8 29  1  0  0  0  0
  9 30  1  0  0  0  0
  9 31  1  0  0  0  0
 10 32  1  0  0  0  0
 15 33  1  0  0  0  0
 17 34  1  0  0  0  0
 19 35  1  0  0  0  0
 20 36  1  0  0  0  0
 25 37  1  0  0  0  0
 25 38  1  0  0  0  0
 25 39  1  0  0  0  0
 26 40  1  0  0  0  0
 26 41  1  0  0  0  0
 26 42  1  0  0  0  0
M  END
> <BIOSOLVEIT.HYDE_ESTIMATED_AFFINITY_LOWER_BOUNDARY [nM]>
290879.298523

> <BIOSOLVEIT.HYDE_ESTIMATED_AFFINITY_UPPER_BOUNDARY [nM]>
28900578.122782

> <BIOSOLVEIT.HYDE_LIGAND_EFFICIENCY range: ++, +, 0, -, -->
--

> <BIOSOLVEIT.HYDE_LIGAND_LIPOPHILIC_EFFICIENCY range: ++, +, 0, -, -->
--

> <BIOSOLVEIT.INTER_CLASH range: red, yellow, green>
green

> <BIOSOLVEIT.INTRA_CLASH range: red, yellow, green>
green

> <BIOSOLVEIT.LOGP>
4.4888

> <BIOSOLVEIT.MOLECULAR WEIGHT>
391.252

> <BIOSOLVEIT.MOLECULE_CHECKSUM>
LTE0LjQ4NTI7MC41NTcxMjI=

> <BIOSOLVEIT.TORSION_QUALITY range: red, yellow, green, not rotatable>
yellow

> <BIOSOLVEIT.TPSA>
60.45

> <BIOSOLVEIT.SEESAR_FAVORITE>
favorite

> <smc_score>
0.688

> <QED_score>
0.696

> <distance>
0.542

> <SimilarityPheSA_1>
0.634

> <Smiles>
COc1cc2cncc(C(=O)NCc3cc(Cl)cc(Cl)c3)c2cc1OC

> <Similarity_SkelSpheres>
0.716

> <Cluster No>
228.0

> <QueryID>
MAT-POS-bb423b95-1

> <SimilarityPheSA>
0.6337

> <Postera series>
3-aminopyridine-like

> <PDB_code>
Mpro-x11542

> <Approach>
DGM_focussed_RL

> <ID>
20210618_439

> <SimilarityPheSA_2>
0.865

> <OPTIBRIUM.logD>
3.61053

> <OPTIBRIUM.BBB category>
-

> <OPTIBRIUM.logP>
3.61053

> <OPTIBRIUM.P-gp category>
no

> <OPTIBRIUM.logS>
0.571622

> <OPTIBRIUM.HIA category>
+

> <OPTIBRIUM.PPB90 category>
high

> <OPTIBRIUM.2D6 affinity category>
medium

> <OPTIBRIUM.hERG pIC50>
4.64747

> <OPTIBRIUM.2C9 pKi>
5.62145

> <OPTIBRIUM.BBB log([brain]:[blood])>
-0.214112

> <OPTIBRIUM.logS @ pH7.4>
0.571622

$$$$
Compound 440_1_03
haSeeSAR  07122114523D 1   1.00000     0.00000     0
SeeSAR 11.0.2 hazemaj
 42 44  0  0  0  0            999 V2000
   15.8939  -15.1836   -1.0164 Cl  0  0  0  0  0  0  0  0  0  0  0  0
   16.2917  -15.2980    0.7148 C   0  0  0  0  0  0  0  0  0  0  0  0
   16.3650  -16.5465    1.3226 C   0  0  0  0  0  0  0  0  0  0  0  0
   16.5241  -14.1310    1.4342 C   0  0  0  0  0  0  0  0  0  0  0  0
   16.6775  -16.6145    2.6762 C   0  0  0  0  0  0  0  0  0  0  0  0
   16.8347  -14.2270    2.7866 C   0  0  0  0  0  0  0  0  0  0  0  0
   16.7741  -18.2067    3.4656 Cl  0  0  0  0  0  0  0  0  0  0  0  0
   16.9141  -15.4631    3.4194 C   0  0  0  0  0  0  0  0  0  0  0  0
   17.0926  -12.9646    3.5917 C   0  0  0  0  0  0  0  0  0  0  0  0
   16.0201  -12.7866    4.5810 N   0  0  0  0  0  0  0  0  0  0  0  0
   15.6457  -11.5692    4.9392 C   0  0  0  0  0  0  0  0  0  0  0  0
   16.1957  -10.5856    4.4439 O   0  0  0  0  0  0  0  0  0  0  0  0
   14.5864  -11.3934    5.9164 C   0  0  0  0  0  0  0  0  0  0  0  0
   14.7461  -11.6735    7.2735 C   0  0  0  0  0  0  0  0  0  0  0  0
   13.3569  -10.9247    5.4664 C   0  0  0  0  0  0  0  0  0  0  0  0
   13.6814  -11.4786    8.1475 C   0  0  0  0  0  0  0  0  0  0  0  0
   15.9451  -12.1487    7.8019 C   0  0  0  0  0  0  0  0  0  0  0  0
   12.3442  -10.7441    6.3269 N   0  0  0  0  0  0  0  0  0  0  0  0
   12.4772  -11.0063    7.6354 C   0  0  0  0  0  0  0  0  0  0  0  0
   13.7937  -11.7437    9.5084 C   0  0  0  0  0  0  0  0  0  0  0  0
   16.0876  -12.4229    9.1565 C   0  0  0  0  0  0  0  0  0  0  0  0
   15.0049  -12.2165   10.0035 C   0  0  0  0  0  0  0  0  0  0  0  0
   17.2664  -12.8821    9.6236 O   0  0  0  0  0  0  0  0  0  0  0  0
   15.1584  -12.4857   11.3163 O   0  0  0  0  0  0  0  0  0  0  0  0
   18.3491  -13.0969    8.7302 C   0  0  0  0  0  0  0  0  0  0  0  0
   14.2219  -13.3179   11.9846 C   0  0  0  0  0  0  0  0  0  0  0  0
   16.1963  -17.3799    0.7963 H   0  0  0  0  0  0  0  0  0  0  0  0
   16.4690  -13.2383    0.9870 H   0  0  0  0  0  0  0  0  0  0  0  0
   17.1376  -15.5229    4.3923 H   0  0  0  0  0  0  0  0  0  0  0  0
   17.1137  -12.1759    2.9773 H   0  0  0  0  0  0  0  0  0  0  0  0
   17.9711  -13.0434    4.0630 H   0  0  0  0  0  0  0  0  0  0  0  0
   15.5733  -13.5857    4.9833 H   0  0  0  0  0  0  0  0  0  0  0  0
   13.2272  -10.7211    4.4959 H   0  0  0  0  0  0  0  0  0  0  0  0
   16.7226  -12.2961    7.1904 H   0  0  0  0  0  0  0  0  0  0  0  0
   11.7019  -10.8608    8.2500 H   0  0  0  0  0  0  0  0  0  0  0  0
   13.0168  -11.5970   10.1208 H   0  0  0  0  0  0  0  0  0  0  0  0
   19.1398  -13.4358    9.2400 H   0  0  0  0  0  0  0  0  0  0  0  0
   18.0835  -13.7706    8.0405 H   0  0  0  0  0  0  0  0  0  0  0  0
   18.5863  -12.2356    8.2808 H   0  0  0  0  0  0  0  0  0  0  0  0
   14.4850  -13.4115   12.9449 H   0  0  0  0  0  0  0  0  0  0  0  0
   13.3114  -12.9086   11.9268 H   0  0  0  0  0  0  0  0  0  0  0  0
   14.2100  -14.2199   11.5529 H   0  0  0  0  0  0  0  0  0  0  0  0
  1  2  1  0  0  0  0
  2  3  2  0  0  0  0
  2  4  1  0  0  0  0
  3  5  1  0  0  0  0
  4  6  2  0  0  0  0
  5  7  1  0  0  0  0
  5  8  2  0  0  0  0
  6  9  1  0  0  0  0
  9 10  1  0  0  0  0
 10 11  1  0  0  0  0
 11 12  2  0  0  0  0
 11 13  1  0  0  0  0
 13 14  1  0  0  0  0
 13 15  2  0  0  0  0
 14 16  1  0  0  0  0
 14 17  2  0  0  0  0
 15 18  1  0  0  0  0
 16 19  1  0  0  0  0
 16 20  2  0  0  0  0
 17 21  1  0  0  0  0
 20 22  1  0  0  0  0
 21 23  1  0  0  0  0
 22 24  1  0  0  0  0
 23 25  1  0  0  0  0
 24 26  1  0  0  0  0
  6  8  1  0  0  0  0
 18 19  2  0  0  0  0
 21 22  2  0  0  0  0
  3 27  1  0  0  0  0
  4 28  1  0  0  0  0
  8 29  1  0  0  0  0
  9 30  1  0  0  0  0
  9 31  1  0  0  0  0
 10 32  1  0  0  0  0
 15 33  1  0  0  0  0
 17 34  1  0  0  0  0
 19 35  1  0  0  0  0
 20 36  1  0  0  0  0
 25 37  1  0  0  0  0
 25 38  1  0  0  0  0
 25 39  1  0  0  0  0
 26 40  1  0  0  0  0
 26 41  1  0  0  0  0
 26 42  1  0  0  0  0
M  END
> <BIOSOLVEIT.HYDE_ESTIMATED_AFFINITY_LOWER_BOUNDARY [nM]>
1878242.006906

> <BIOSOLVEIT.HYDE_ESTIMATED_AFFINITY_UPPER_BOUNDARY [nM]>
186614448.431718

> <BIOSOLVEIT.HYDE_LIGAND_EFFICIENCY range: ++, +, 0, -, -->
--

> <BIOSOLVEIT.HYDE_LIGAND_LIPOPHILIC_EFFICIENCY range: ++, +, 0, -, -->
--

> <BIOSOLVEIT.INTER_CLASH range: red, yellow, green>
green

> <BIOSOLVEIT.INTRA_CLASH range: red, yellow, green>
green

> <BIOSOLVEIT.LOGP>
4.4888

> <BIOSOLVEIT.MOLECULAR WEIGHT>
391.252

> <BIOSOLVEIT.MOLECULE_CHECKSUM>
LTkuODYxNDU7MC4zNzkyODc=

> <BIOSOLVEIT.TORSION_QUALITY range: red, yellow, green, not rotatable>
yellow

> <BIOSOLVEIT.TPSA>
60.45

> <BIOSOLVEIT.SEESAR_FAVORITE>
favorite

> <smc_score>
0.688

> <QED_score>
0.696

> <distance>
0.542

> <SimilarityPheSA_1>
0.634

> <Smiles>
COc1cc2cncc(C(=O)NCc3cc(Cl)cc(Cl)c3)c2cc1OC

> <Similarity_SkelSpheres>
0.716

> <Cluster No>
228.0

> <QueryID>
MAT-POS-bb423b95-1

> <SimilarityPheSA>
0.6337

> <Postera series>
3-aminopyridine-like

> <PDB_code>
Mpro-x11542

> <Approach>
DGM_focussed_RL

> <ID>
20210618_439

> <SimilarityPheSA_2>
0.865

> <OPTIBRIUM.logD>
3.61053

> <OPTIBRIUM.BBB category>
-

> <OPTIBRIUM.logP>
3.61053

> <OPTIBRIUM.P-gp category>
no

> <OPTIBRIUM.logS>
0.571622

> <OPTIBRIUM.HIA category>
+

> <OPTIBRIUM.PPB90 category>
high

> <OPTIBRIUM.2D6 affinity category>
medium

> <OPTIBRIUM.hERG pIC50>
4.64747

> <OPTIBRIUM.2C9 pKi>
5.62145

> <OPTIBRIUM.BBB log([brain]:[blood])>
-0.214112

> <OPTIBRIUM.logS @ pH7.4>
0.571622

$$$$
Compound 440_1_04
haSeeSAR  07122114523D 1   1.00000     0.00000     0
SeeSAR 11.0.2 hazemaj
 42 44  0  0  0  0            999 V2000
   15.8964  -15.1784   -1.0189 Cl  0  0  0  0  0  0  0  0  0  0  0  0
   16.2932  -15.2945    0.7124 C   0  0  0  0  0  0  0  0  0  0  0  0
   16.3655  -16.5436    1.3191 C   0  0  0  0  0  0  0  0  0  0  0  0
   16.5260  -14.1283    1.4329 C   0  0  0  0  0  0  0  0  0  0  0  0
   16.6773  -16.6130    2.6728 C   0  0  0  0  0  0  0  0  0  0  0  0
   16.8359  -14.2258    2.7854 C   0  0  0  0  0  0  0  0  0  0  0  0
   16.7724  -18.2061    3.4608 Cl  0  0  0  0  0  0  0  0  0  0  0  0
   16.9143  -15.4625    3.4172 C   0  0  0  0  0  0  0  0  0  0  0  0
   17.0943  -12.9643    3.5918 C   0  0  0  0  0  0  0  0  0  0  0  0
   16.0212  -12.7865    4.5807 N   0  0  0  0  0  0  0  0  0  0  0  0
   15.6468  -11.5691    4.9390 C   0  0  0  0  0  0  0  0  0  0  0  0
   16.1973  -10.5853    4.4444 O   0  0  0  0  0  0  0  0  0  0  0  0
   14.5869  -11.3935    5.9156 C   0  0  0  0  0  0  0  0  0  0  0  0
   14.7462  -11.6734    7.2729 C   0  0  0  0  0  0  0  0  0  0  0  0
   13.3577  -10.9250    5.4650 C   0  0  0  0  0  0  0  0  0  0  0  0
   13.6811  -11.4786    8.1463 C   0  0  0  0  0  0  0  0  0  0  0  0
   15.9451  -12.1484    7.8019 C   0  0  0  0  0  0  0  0  0  0  0  0
   12.3444  -10.7446    6.3252 N   0  0  0  0  0  0  0  0  0  0  0  0
   12.4770  -11.0066    7.6336 C   0  0  0  0  0  0  0  0  0  0  0  0
   13.7928  -11.7437    9.5074 C   0  0  0  0  0  0  0  0  0  0  0  0
   16.0870  -12.4224    9.1565 C   0  0  0  0  0  0  0  0  0  0  0  0
   15.0038  -12.2162   10.0030 C   0  0  0  0  0  0  0  0  0  0  0  0
   17.2657  -12.8814    9.6242 O   0  0  0  0  0  0  0  0  0  0  0  0
   15.1568  -12.4852   11.3159 O   0  0  0  0  0  0  0  0  0  0  0  0
   18.3487  -13.0961    8.7312 C   0  0  0  0  0  0  0  0  0  0  0  0
   14.2206  -13.3183   11.9837 C   0  0  0  0  0  0  0  0  0  0  0  0
   16.1966  -17.3764    0.7919 H   0  0  0  0  0  0  0  0  0  0  0  0
   16.4717  -13.2352    0.9865 H   0  0  0  0  0  0  0  0  0  0  0  0
   17.1373  -15.5233    4.3901 H   0  0  0  0  0  0  0  0  0  0  0  0
   17.1163  -12.1750    2.9782 H   0  0  0  0  0  0  0  0  0  0  0  0
   17.9723  -13.0442    4.0637 H   0  0  0  0  0  0  0  0  0  0  0  0
   15.5741  -13.5857    4.9825 H   0  0  0  0  0  0  0  0  0  0  0  0
   13.2284  -10.7216    4.4945 H   0  0  0  0  0  0  0  0  0  0  0  0
   16.7229  -12.2956    7.1908 H   0  0  0  0  0  0  0  0  0  0  0  0
   11.7014  -10.8612    8.2479 H   0  0  0  0  0  0  0  0  0  0  0  0
   13.0155  -11.5971   10.1193 H   0  0  0  0  0  0  0  0  0  0  0  0
   19.1392  -13.4347    9.2414 H   0  0  0  0  0  0  0  0  0  0  0  0
   18.0835  -13.7700    8.0417 H   0  0  0  0  0  0  0  0  0  0  0  0
   18.5860  -12.2349    8.2818 H   0  0  0  0  0  0  0  0  0  0  0  0
   14.4831  -13.4116   12.9442 H   0  0  0  0  0  0  0  0  0  0  0  0
   13.3098  -12.9098   11.9254 H   0  0  0  0  0  0  0  0  0  0  0  0
   14.2097  -14.2202   11.5520 H   0  0  0  0  0  0  0  0  0  0  0  0
  1  2  1  0  0  0  0
  2  3  2  0  0  0  0
  2  4  1  0  0  0  0
  3  5  1  0  0  0  0
  4  6  2  0  0  0  0
  5  7  1  0  0  0  0
  5  8  2  0  0  0  0
  6  9  1  0  0  0  0
  9 10  1  0  0  0  0
 10 11  1  0  0  0  0
 11 12  2  0  0  0  0
 11 13  1  0  0  0  0
 13 14  1  0  0  0  0
 13 15  2  0  0  0  0
 14 16  1  0  0  0  0
 14 17  2  0  0  0  0
 15 18  1  0  0  0  0
 16 19  1  0  0  0  0
 16 20  2  0  0  0  0
 17 21  1  0  0  0  0
 20 22  1  0  0  0  0
 21 23  1  0  0  0  0
 22 24  1  0  0  0  0
 23 25  1  0  0  0  0
 24 26  1  0  0  0  0
  6  8  1  0  0  0  0
 18 19  2  0  0  0  0
 21 22  2  0  0  0  0
  3 27  1  0  0  0  0
  4 28  1  0  0  0  0
  8 29  1  0  0  0  0
  9 30  1  0  0  0  0
  9 31  1  0  0  0  0
 10 32  1  0  0  0  0
 15 33  1  0  0  0  0
 17 34  1  0  0  0  0
 19 35  1  0  0  0  0
 20 36  1  0  0  0  0
 25 37  1  0  0  0  0
 25 38  1  0  0  0  0
 25 39  1  0  0  0  0
 26 40  1  0  0  0  0
 26 41  1  0  0  0  0
 26 42  1  0  0  0  0
M  END
> <BIOSOLVEIT.HYDE_ESTIMATED_AFFINITY_LOWER_BOUNDARY [nM]>
1888891.965011

> <BIOSOLVEIT.HYDE_ESTIMATED_AFFINITY_UPPER_BOUNDARY [nM]>
187672584.737012

> <BIOSOLVEIT.HYDE_LIGAND_EFFICIENCY range: ++, +, 0, -, -->
--

> <BIOSOLVEIT.HYDE_LIGAND_LIPOPHILIC_EFFICIENCY range: ++, +, 0, -, -->
--

> <BIOSOLVEIT.INTER_CLASH range: red, yellow, green>
green

> <BIOSOLVEIT.INTRA_CLASH range: red, yellow, green>
green

> <BIOSOLVEIT.LOGP>
4.4888

> <BIOSOLVEIT.MOLECULAR WEIGHT>
391.252

> <BIOSOLVEIT.MOLECULE_CHECKSUM>
LTkuODQ3NDM7MC4zNzg3NDc=

> <BIOSOLVEIT.TORSION_QUALITY range: red, yellow, green, not rotatable>
yellow

> <BIOSOLVEIT.TPSA>
60.45

> <BIOSOLVEIT.SEESAR_FAVORITE>
favorite

> <smc_score>
0.688

> <QED_score>
0.696

> <distance>
0.542

> <SimilarityPheSA_1>
0.634

> <Smiles>
COc1cc2cncc(C(=O)NCc3cc(Cl)cc(Cl)c3)c2cc1OC

> <Similarity_SkelSpheres>
0.716

> <Cluster No>
228.0

> <QueryID>
MAT-POS-bb423b95-1

> <SimilarityPheSA>
0.6337

> <Postera series>
3-aminopyridine-like

> <PDB_code>
Mpro-x11542

> <Approach>
DGM_focussed_RL

> <ID>
20210618_439

> <SimilarityPheSA_2>
0.865

> <OPTIBRIUM.logD>
3.61053

> <OPTIBRIUM.BBB category>
-

> <OPTIBRIUM.logP>
3.61053

> <OPTIBRIUM.P-gp category>
no

> <OPTIBRIUM.logS>
0.571622

> <OPTIBRIUM.HIA category>
+

> <OPTIBRIUM.PPB90 category>
high

> <OPTIBRIUM.2D6 affinity category>
medium

> <OPTIBRIUM.hERG pIC50>
4.64747

> <OPTIBRIUM.2C9 pKi>
5.62145

> <OPTIBRIUM.BBB log([brain]:[blood])>
-0.214112

> <OPTIBRIUM.logS @ pH7.4>
0.571622

$$$$
Compound 440_1_10
haSeeSAR  07122114523D 1   1.00000     0.00000     0
SeeSAR 11.0.2 hazemaj
 42 44  0  0  0  0            999 V2000
   15.8929  -15.1861   -1.0174 Cl  0  0  0  0  0  0  0  0  0  0  0  0
   16.2908  -15.2994    0.7138 C   0  0  0  0  0  0  0  0  0  0  0  0
   16.3647  -16.5476    1.3221 C   0  0  0  0  0  0  0  0  0  0  0  0
   16.5228  -14.1320    1.4325 C   0  0  0  0  0  0  0  0  0  0  0  0
   16.6772  -16.6148    2.6759 C   0  0  0  0  0  0  0  0  0  0  0  0
   16.8335  -14.2272    2.7850 C   0  0  0  0  0  0  0  0  0  0  0  0
   16.7745  -18.2066    3.4660 Cl  0  0  0  0  0  0  0  0  0  0  0  0
   16.9135  -15.4630    3.4185 C   0  0  0  0  0  0  0  0  0  0  0  0
   17.0910  -12.9643    3.5895 C   0  0  0  0  0  0  0  0  0  0  0  0
   16.0184  -12.7864    4.5790 N   0  0  0  0  0  0  0  0  0  0  0  0
   15.6456  -11.5691    4.9387 C   0  0  0  0  0  0  0  0  0  0  0  0
   16.1968  -10.5854    4.4449 O   0  0  0  0  0  0  0  0  0  0  0  0
   14.5863  -11.3934    5.9161 C   0  0  0  0  0  0  0  0  0  0  0  0
   14.7462  -11.6735    7.2732 C   0  0  0  0  0  0  0  0  0  0  0  0
   13.3568  -10.9246    5.4662 C   0  0  0  0  0  0  0  0  0  0  0  0
   13.6815  -11.4787    8.1471 C   0  0  0  0  0  0  0  0  0  0  0  0
   15.9452  -12.1488    7.8014 C   0  0  0  0  0  0  0  0  0  0  0  0
   12.3441  -10.7442    6.3269 N   0  0  0  0  0  0  0  0  0  0  0  0
   12.4773  -11.0064    7.6353 C   0  0  0  0  0  0  0  0  0  0  0  0
   13.7940  -11.7439    9.5081 C   0  0  0  0  0  0  0  0  0  0  0  0
   16.0878  -12.4230    9.1559 C   0  0  0  0  0  0  0  0  0  0  0  0
   15.0052  -12.2168   10.0030 C   0  0  0  0  0  0  0  0  0  0  0  0
   17.2667  -12.8822    9.6229 O   0  0  0  0  0  0  0  0  0  0  0  0
   15.1588  -12.4860   11.3159 O   0  0  0  0  0  0  0  0  0  0  0  0
   18.3492  -13.0972    8.7293 C   0  0  0  0  0  0  0  0  0  0  0  0
   14.2220  -13.3176   11.9844 C   0  0  0  0  0  0  0  0  0  0  0  0
   16.1964  -17.3813    0.7963 H   0  0  0  0  0  0  0  0  0  0  0  0
   16.4673  -13.2395    0.9850 H   0  0  0  0  0  0  0  0  0  0  0  0
   17.1370  -15.5223    4.3914 H   0  0  0  0  0  0  0  0  0  0  0  0
   17.1115  -12.1759    2.9747 H   0  0  0  0  0  0  0  0  0  0  0  0
   17.9696  -13.0426    4.0607 H   0  0  0  0  0  0  0  0  0  0  0  0
   15.5707  -13.5855    4.9801 H   0  0  0  0  0  0  0  0  0  0  0  0
   13.2270  -10.7211    4.4958 H   0  0  0  0  0  0  0  0  0  0  0  0
   16.7226  -12.2961    7.1899 H   0  0  0  0  0  0  0  0  0  0  0  0
   11.7021  -10.8609    8.2500 H   0  0  0  0  0  0  0  0  0  0  0  0
   13.0171  -11.5973   10.1206 H   0  0  0  0  0  0  0  0  0  0  0  0
   19.1400  -13.4360    9.2391 H   0  0  0  0  0  0  0  0  0  0  0  0
   18.0834  -13.7710    8.0398 H   0  0  0  0  0  0  0  0  0  0  0  0
   18.5863  -12.2360    8.2798 H   0  0  0  0  0  0  0  0  0  0  0  0
   14.4851  -13.4113   12.9447 H   0  0  0  0  0  0  0  0  0  0  0  0
   13.3116  -12.9077   11.9269 H   0  0  0  0  0  0  0  0  0  0  0  0
   14.2093  -14.2195   11.5528 H   0  0  0  0  0  0  0  0  0  0  0  0
  1  2  1  0  0  0  0
  2  3  2  0  0  0  0
  2  4  1  0  0  0  0
  3  5  1  0  0  0  0
  4  6  2  0  0  0  0
  5  7  1  0  0  0  0
  5  8  2  0  0  0  0
  6  9  1  0  0  0  0
  9 10  1  0  0  0  0
 10 11  1  0  0  0  0
 11 12  2  0  0  0  0
 11 13  1  0  0  0  0
 13 14  1  0  0  0  0
 13 15  2  0  0  0  0
 14 16  1  0  0  0  0
 14 17  2  0  0  0  0
 15 18  1  0  0  0  0
 16 19  1  0  0  0  0
 16 20  2  0  0  0  0
 17 21  1  0  0  0  0
 20 22  1  0  0  0  0
 21 23  1  0  0  0  0
 22 24  1  0  0  0  0
 23 25  1  0  0  0  0
 24 26  1  0  0  0  0
  6  8  1  0  0  0  0
 18 19  2  0  0  0  0
 21 22  2  0  0  0  0
  3 27  1  0  0  0  0
  4 28  1  0  0  0  0
  8 29  1  0  0  0  0
  9 30  1  0  0  0  0
  9 31  1  0  0  0  0
 10 32  1  0  0  0  0
 15 33  1  0  0  0  0
 17 34  1  0  0  0  0
 19 35  1  0  0  0  0
 20 36  1  0  0  0  0
 25 37  1  0  0  0  0
 25 38  1  0  0  0  0
 25 39  1  0  0  0  0
 26 40  1  0  0  0  0
 26 41  1  0  0  0  0
 26 42  1  0  0  0  0
M  END
> <BIOSOLVEIT.HYDE_ESTIMATED_AFFINITY_LOWER_BOUNDARY [nM]>
1886139.478937

> <BIOSOLVEIT.HYDE_ESTIMATED_AFFINITY_UPPER_BOUNDARY [nM]>
187399108.971595

> <BIOSOLVEIT.HYDE_LIGAND_EFFICIENCY range: ++, +, 0, -, -->
--

> <BIOSOLVEIT.HYDE_LIGAND_LIPOPHILIC_EFFICIENCY range: ++, +, 0, -, -->
--

> <BIOSOLVEIT.INTER_CLASH range: red, yellow, green>
green

> <BIOSOLVEIT.INTRA_CLASH range: red, yellow, green>
green

> <BIOSOLVEIT.LOGP>
4.4888

> <BIOSOLVEIT.MOLECULAR WEIGHT>
391.252

> <BIOSOLVEIT.MOLECULE_CHECKSUM>
LTkuODUxMDU7MC4zNzg4ODc=

> <BIOSOLVEIT.TORSION_QUALITY range: red, yellow, green, not rotatable>
yellow

> <BIOSOLVEIT.TPSA>
60.45

> <BIOSOLVEIT.SEESAR_FAVORITE>
favorite

> <smc_score>
0.688

> <QED_score>
0.696

> <distance>
0.542

> <SimilarityPheSA_1>
0.634

> <Smiles>
COc1cc2cncc(C(=O)NCc3cc(Cl)cc(Cl)c3)c2cc1OC

> <Similarity_SkelSpheres>
0.716

> <Cluster No>
228.0

> <QueryID>
MAT-POS-bb423b95-1

> <SimilarityPheSA>
0.6337

> <Postera series>
3-aminopyridine-like

> <PDB_code>
Mpro-x11542

> <Approach>
DGM_focussed_RL

> <ID>
20210618_439

> <SimilarityPheSA_2>
0.865

> <OPTIBRIUM.logD>
3.61053

> <OPTIBRIUM.BBB category>
-

> <OPTIBRIUM.logP>
3.61053

> <OPTIBRIUM.P-gp category>
no

> <OPTIBRIUM.logS>
0.571622

> <OPTIBRIUM.HIA category>
+

> <OPTIBRIUM.PPB90 category>
high

> <OPTIBRIUM.2D6 affinity category>
medium

> <OPTIBRIUM.hERG pIC50>
4.64747

> <OPTIBRIUM.2C9 pKi>
5.62145

> <OPTIBRIUM.BBB log([brain]:[blood])>
-0.214112

> <OPTIBRIUM.logS @ pH7.4>
0.571622

$$$$
Compound 431_1_1
haSeeSAR  07122114523D 1   1.00000     0.00000     0
SeeSAR 11.0.2 hazemaj
 53 55  0  0  0  0            999 V2000
   21.9509   -6.0904    3.2855 Cl  0  0  0  0  0  0  0  0  0  0  0  0
   21.1648   -7.6587    3.5859 C   0  0  0  0  0  0  0  0  0  0  0  0
   19.8587   -7.8734    3.1597 C   0  0  0  0  0  0  0  0  0  0  0  0
   21.8650   -8.6626    4.2467 C   0  0  0  0  0  0  0  0  0  0  0  0
   18.9802   -6.5755    2.3158 Cl  0  0  0  0  0  0  0  0  0  0  0  0
   19.2314   -9.0936    3.3869 C   0  0  0  0  0  0  0  0  0  0  0  0
   21.2396   -9.8838    4.4751 C   0  0  0  0  0  0  0  0  0  0  0  0
   19.9333  -10.0964    4.0477 C   0  0  0  0  0  0  0  0  0  0  0  0
   21.9175  -10.8586    5.1169 O   0  0  0  0  0  0  0  0  0  0  0  0
   19.2509  -11.4317    4.2969 C   0  0  0  0  0  0  0  0  0  0  0  0
   23.2076  -10.5947    5.6482 C   0  0  0  0  0  0  0  0  0  0  0  0
   18.6985  -11.4529    5.6588 N   0  0  0  0  0  0  0  0  0  0  0  0
   17.4582  -10.9390    6.0359 C   0  0  0  0  0  0  0  0  0  0  0  0
   19.3540  -12.0216    6.8345 C   0  0  0  0  0  0  0  0  0  0  0  0
   16.6564  -10.3935    5.3014 O   0  0  0  0  0  0  0  0  0  0  0  0
   17.2898  -11.1558    7.5234 C   0  0  2  0  0  0  0  0  0  0  0  0
   18.7348  -11.2475    7.9723 C   0  0  0  0  0  0  0  0  0  0  0  0
   16.5100  -12.4267    7.8118 C   0  0  0  0  0  0  0  0  0  0  0  0
   15.4967  -12.6620    6.7034 C   0  0  0  0  0  0  0  0  0  0  0  0
   14.4348  -11.6486    6.7871 N   0  3  2  0  0  0  0  0  0  0  0  0
   13.4647  -11.9718    7.8506 C   0  0  2  0  0  0  0  0  0  0  0  0
   13.7876  -11.4434    5.4845 C   0  0  0  0  0  0  0  0  0  0  0  0
   12.3024  -10.9910    7.7928 C   0  0  0  0  0  0  0  0  0  0  0  0
   14.1239  -11.9607    9.2191 C   0  0  0  0  0  0  0  0  0  0  0  0
   12.2979  -11.7446    5.5373 C   0  0  0  0  0  0  0  0  0  0  0  0
   11.7149  -10.8727    6.5033 O   0  0  0  0  0  0  0  0  0  0  0  0
   22.8042   -8.5085    4.5532 H   0  0  0  0  0  0  0  0  0  0  0  0
   18.2920   -9.2474    3.0805 H   0  0  0  0  0  0  0  0  0  0  0  0
   19.9172  -12.1705    4.1959 H   0  0  0  0  0  0  0  0  0  0  0  0
   18.5116  -11.5568    3.6353 H   0  0  0  0  0  0  0  0  0  0  0  0
   23.5627  -11.4202    6.0870 H   0  0  0  0  0  0  0  0  0  0  0  0
   23.8224  -10.3191    4.9092 H   0  0  0  0  0  0  0  0  0  0  0  0
   23.1462   -9.8588    6.3227 H   0  0  0  0  0  0  0  0  0  0  0  0
   20.3432  -11.8797    6.7989 H   0  0  0  0  0  0  0  0  0  0  0  0
   19.1603  -12.9992    6.9168 H   0  0  0  0  0  0  0  0  0  0  0  0
   16.8418  -10.3668    7.9438 H   0  0  0  0  0  0  0  0  0  0  0  0
   19.1470  -10.3411    8.0646 H   0  0  0  0  0  0  0  0  0  0  0  0
   18.8177  -11.7412    8.8379 H   0  0  0  0  0  0  0  0  0  0  0  0
   16.0326  -12.3339    8.6856 H   0  0  0  0  0  0  0  0  0  0  0  0
   17.1404  -13.2016    7.8569 H   0  0  0  0  0  0  0  0  0  0  0  0
   15.0970  -13.5730    6.8050 H   0  0  0  0  0  0  0  0  0  0  0  0
   15.9522  -12.5949    5.8157 H   0  0  0  0  0  0  0  0  0  0  0  0
   13.1084  -12.8907    7.6814 H   0  0  0  0  0  0  0  0  0  0  0  0
   14.2159  -12.0473    4.8122 H   0  0  0  0  0  0  0  0  0  0  0  0
   13.9153  -10.4914    5.2066 H   0  0  0  0  0  0  0  0  0  0  0  0
   12.6358  -10.0902    8.0712 H   0  0  0  0  0  0  0  0  0  0  0  0
   11.5984  -11.2983    8.4330 H   0  0  0  0  0  0  0  0  0  0  0  0
   13.4441  -12.1825    9.9182 H   0  0  0  0  0  0  0  0  0  0  0  0
   14.8581  -12.6392    9.2409 H   0  0  0  0  0  0  0  0  0  0  0  0
   14.5032  -11.0531    9.3991 H   0  0  0  0  0  0  0  0  0  0  0  0
   12.1519  -12.6969    5.8056 H   0  0  0  0  0  0  0  0  0  0  0  0
   11.8857  -11.5841    4.6405 H   0  0  0  0  0  0  0  0  0  0  0  0
   14.8710  -10.7846    7.0388 H   0  0  0  0  0  0  0  0  0  0  0  0
  1  2  1  0  0  0  0
  2  3  2  0  0  0  0
  2  4  1  0  0  0  0
  3  5  1  0  0  0  0
  3  6  1  0  0  0  0
  4  7  2  0  0  0  0
  6  8  2  0  0  0  0
  7  9  1  0  0  0  0
  8 10  1  0  0  0  0
  9 11  1  0  0  0  0
 10 12  1  0  0  0  0
 12 13  1  0  0  0  0
 12 14  1  0  0  0  0
 13 15  2  0  0  0  0
 13 16  1  0  0  0  0
 14 17  1  0  0  0  0
 16 18  1  0  0  0  0
 18 19  1  0  0  0  0
 19 20  1  0  0  0  0
 20 21  1  0  0  0  0
 20 22  1  0  0  0  0
 21 23  1  0  0  0  0
 21 24  1  0  0  0  0
 22 25  1  0  0  0  0
 23 26  1  0  0  0  0
  7  8  1  0  0  0  0
 16 17  1  0  0  0  0
 25 26  1  0  0  0  0
  4 27  1  0  0  0  0
  6 28  1  0  0  0  0
 10 29  1  0  0  0  0
 10 30  1  0  0  0  0
 11 31  1  0  0  0  0
 11 32  1  0  0  0  0
 11 33  1  0  0  0  0
 14 34  1  0  0  0  0
 14 35  1  0  0  0  0
 16 36  1  0  0  0  0
 17 37  1  0  0  0  0
 17 38  1  0  0  0  0
 18 39  1  0  0  0  0
 18 40  1  0  0  0  0
 19 41  1  0  0  0  0
 19 42  1  0  0  0  0
 21 43  1  0  0  0  0
 22 44  1  0  0  0  0
 22 45  1  0  0  0  0
 23 46  1  0  0  0  0
 23 47  1  0  0  0  0
 24 48  1  0  0  0  0
 24 49  1  0  0  0  0
 24 50  1  0  0  0  0
 25 51  1  0  0  0  0
 25 52  1  0  0  0  0
 20 53  1  0  0  0  0
M  CHG  1  20   1
M  END
> <BIOSOLVEIT.HYDE_ESTIMATED_AFFINITY_LOWER_BOUNDARY [nM]>
310028188.487556

> <BIOSOLVEIT.HYDE_ESTIMATED_AFFINITY_UPPER_BOUNDARY [nM]>
30803133557.957268

> <BIOSOLVEIT.HYDE_LIGAND_EFFICIENCY range: ++, +, 0, -, -->
--

> <BIOSOLVEIT.HYDE_LIGAND_LIPOPHILIC_EFFICIENCY range: ++, +, 0, -, -->
--

> <BIOSOLVEIT.INTER_CLASH range: red, yellow, green>
green

> <BIOSOLVEIT.INTRA_CLASH range: red, yellow, green>
red

> <BIOSOLVEIT.LOGP>
2.0442

> <BIOSOLVEIT.MOLECULAR WEIGHT>
402.339

> <BIOSOLVEIT.MOLECULE_CHECKSUM>
Mi43OTY5MTsw

> <BIOSOLVEIT.TORSION_QUALITY range: red, yellow, green, not rotatable>
green

> <BIOSOLVEIT.TPSA>
43.21

> <BIOSOLVEIT.SEESAR_FAVORITE>
favorite

> <smc_score>
0.938

> <QED_score>
0.732

> <distance>
0.771

> <SimilarityPheSA_1>
0.653

> <Smiles>
COc1cc(Cl)c(Cl)cc1CN1CCC(CCN2CCOCC2C)C1=O

> <Similarity_SkelSpheres>
0.603

> <Cluster No>
221.0

> <QueryID>
JAN-GHE-5a013bed-2

> <SimilarityPheSA>
0.6529

> <Postera series>
3-aminopyridine-like

> <PDB_code>
Mpro-x10466

> <Approach>
DGM_focussed_RL

> <ID>
20210618_430

> <SimilarityPheSA_2>
0.71

> <OPTIBRIUM.logD>
1.48621

> <OPTIBRIUM.BBB category>
-

> <OPTIBRIUM.logP>
2.92109

> <OPTIBRIUM.P-gp category>
yes

> <OPTIBRIUM.logS>
2.78479

> <OPTIBRIUM.HIA category>
+

> <OPTIBRIUM.PPB90 category>
low

> <OPTIBRIUM.2D6 affinity category>
medium

> <OPTIBRIUM.hERG pIC50>
5.30012

> <OPTIBRIUM.2C9 pKi>
5.15875

> <OPTIBRIUM.BBB log([brain]:[blood])>
-0.301343

> <OPTIBRIUM.logS @ pH7.4>
2.6953

$$$$
Compound 431_1_4
haSeeSAR  07122114523D 1   1.00000     0.00000     0
SeeSAR 11.0.2 hazemaj
 53 55  0  0  0  0            999 V2000
   22.0384   -6.2805    3.4392 Cl  0  0  0  0  0  0  0  0  0  0  0  0
   21.2309   -7.8382    3.7378 C   0  0  0  0  0  0  0  0  0  0  0  0
   19.9364   -8.0487    3.2761 C   0  0  0  0  0  0  0  0  0  0  0  0
   21.9030   -8.8381    4.4329 C   0  0  0  0  0  0  0  0  0  0  0  0
   19.0939   -6.7560    2.3886 Cl  0  0  0  0  0  0  0  0  0  0  0  0
   19.2927   -9.2609    3.5014 C   0  0  0  0  0  0  0  0  0  0  0  0
   21.2612  -10.0511    4.6595 C   0  0  0  0  0  0  0  0  0  0  0  0
   19.9665  -10.2597    4.1964 C   0  0  0  0  0  0  0  0  0  0  0  0
   21.9119  -11.0221    5.3345 O   0  0  0  0  0  0  0  0  0  0  0  0
   19.2662  -11.5859    4.4437 C   0  0  0  0  0  0  0  0  0  0  0  0
   23.2000  -10.7693    5.8761 C   0  0  0  0  0  0  0  0  0  0  0  0
   18.6314  -11.5651    5.7693 N   0  0  0  0  0  0  0  0  0  0  0  0
   17.4446  -10.9055    6.0867 C   0  0  0  0  0  0  0  0  0  0  0  0
   19.1353  -12.2374    6.9648 C   0  0  0  0  0  0  0  0  0  0  0  0
   16.7654  -10.2469    5.3218 O   0  0  0  0  0  0  0  0  0  0  0  0
   17.1576  -11.1301    7.5547 C   0  0  2  0  0  0  0  0  0  0  0  0
   18.5486  -11.4146    8.0857 C   0  0  0  0  0  0  0  0  0  0  0  0
   16.2074  -12.2971    7.7596 C   0  0  0  0  0  0  0  0  0  0  0  0
   15.7800  -12.8458    6.4081 C   0  0  0  0  0  0  0  0  0  0  0  0
   14.3527  -12.5647    6.1942 N   0  3  2  0  0  0  0  0  0  0  0  0
   14.1479  -11.6642    5.0438 C   0  0  2  0  0  0  0  0  0  0  0  0
   13.7179  -12.0600    7.4187 C   0  0  0  0  0  0  0  0  0  0  0  0
   12.6796  -11.2723    4.9610 C   0  0  0  0  0  0  0  0  0  0  0  0
   14.6175  -12.3072    3.7504 C   0  0  0  0  0  0  0  0  0  0  0  0
   13.1228  -10.6747    7.2197 C   0  0  0  0  0  0  0  0  0  0  0  0
   12.1508  -10.7673    6.1806 O   0  0  0  0  0  0  0  0  0  0  0  0
   22.8340   -8.6870    4.7650 H   0  0  0  0  0  0  0  0  0  0  0  0
   18.3615   -9.4117    3.1694 H   0  0  0  0  0  0  0  0  0  0  0  0
   19.9352  -12.3282    4.4061 H   0  0  0  0  0  0  0  0  0  0  0  0
   18.5683  -11.7304    3.7421 H   0  0  0  0  0  0  0  0  0  0  0  0
   23.5334  -11.5900    6.3400 H   0  0  0  0  0  0  0  0  0  0  0  0
   23.8294  -10.5243    5.1386 H   0  0  0  0  0  0  0  0  0  0  0  0
   23.1442  -10.0156    6.5310 H   0  0  0  0  0  0  0  0  0  0  0  0
   20.1348  -12.2220    6.9921 H   0  0  0  0  0  0  0  0  0  0  0  0
   18.8152  -13.1838    7.0075 H   0  0  0  0  0  0  0  0  0  0  0  0
   16.7871  -10.2995    7.9703 H   0  0  0  0  0  0  0  0  0  0  0  0
   19.0650  -10.5703    8.2283 H   0  0  0  0  0  0  0  0  0  0  0  0
   18.5145  -11.9329    8.9402 H   0  0  0  0  0  0  0  0  0  0  0  0
   15.4013  -11.9862    8.2631 H   0  0  0  0  0  0  0  0  0  0  0  0
   16.6690  -13.0154    8.2802 H   0  0  0  0  0  0  0  0  0  0  0  0
   15.9320  -13.8340    6.3863 H   0  0  0  0  0  0  0  0  0  0  0  0
   16.3174  -12.4099    5.6862 H   0  0  0  0  0  0  0  0  0  0  0  0
   14.6858  -10.8348    5.1951 H   0  0  0  0  0  0  0  0  0  0  0  0
   14.4046  -12.0155    8.1442 H   0  0  0  0  0  0  0  0  0  0  0  0
   12.9889  -12.6894    7.6879 H   0  0  0  0  0  0  0  0  0  0  0  0
   12.1519  -12.0804    4.6991 H   0  0  0  0  0  0  0  0  0  0  0  0
   12.5805  -10.5674    4.2586 H   0  0  0  0  0  0  0  0  0  0  0  0
   14.4666  -11.6755    2.9901 H   0  0  0  0  0  0  0  0  0  0  0  0
   15.5922  -12.5200    3.8185 H   0  0  0  0  0  0  0  0  0  0  0  0
   14.1028  -13.1496    3.5908 H   0  0  0  0  0  0  0  0  0  0  0  0
   13.8407  -10.0296    6.9583 H   0  0  0  0  0  0  0  0  0  0  0  0
   12.6887  -10.3654    8.0659 H   0  0  0  0  0  0  0  0  0  0  0  0
   13.9117  -13.4338    5.9703 H   0  0  0  0  0  0  0  0  0  0  0  0
  1  2  1  0  0  0  0
  2  3  2  0  0  0  0
  2  4  1  0  0  0  0
  3  5  1  0  0  0  0
  3  6  1  0  0  0  0
  4  7  2  0  0  0  0
  6  8  2  0  0  0  0
  7  9  1  0  0  0  0
  8 10  1  0  0  0  0
  9 11  1  0  0  0  0
 10 12  1  0  0  0  0
 12 13  1  0  0  0  0
 12 14  1  0  0  0  0
 13 15  2  0  0  0  0
 13 16  1  0  0  0  0
 14 17  1  0  0  0  0
 16 18  1  0  0  0  0
 18 19  1  0  0  0  0
 19 20  1  0  0  0  0
 20 21  1  0  0  0  0
 20 22  1  0  0  0  0
 21 23  1  0  0  0  0
 21 24  1  0  0  0  0
 22 25  1  0  0  0  0
 23 26  1  0  0  0  0
  7  8  1  0  0  0  0
 16 17  1  0  0  0  0
 25 26  1  0  0  0  0
  4 27  1  0  0  0  0
  6 28  1  0  0  0  0
 10 29  1  0  0  0  0
 10 30  1  0  0  0  0
 11 31  1  0  0  0  0
 11 32  1  0  0  0  0
 11 33  1  0  0  0  0
 14 34  1  0  0  0  0
 14 35  1  0  0  0  0
 16 36  1  0  0  0  0
 17 37  1  0  0  0  0
 17 38  1  0  0  0  0
 18 39  1  0  0  0  0
 18 40  1  0  0  0  0
 19 41  1  0  0  0  0
 19 42  1  0  0  0  0
 21 43  1  0  0  0  0
 22 44  1  0  0  0  0
 22 45  1  0  0  0  0
 23 46  1  0  0  0  0
 23 47  1  0  0  0  0
 24 48  1  0  0  0  0
 24 49  1  0  0  0  0
 24 50  1  0  0  0  0
 25 51  1  0  0  0  0
 25 52  1  0  0  0  0
 20 53  1  0  0  0  0
M  CHG  1  20   1
M  END
> <BIOSOLVEIT.HYDE_ESTIMATED_AFFINITY_LOWER_BOUNDARY [nM]>
3930306.740440

> <BIOSOLVEIT.HYDE_ESTIMATED_AFFINITY_UPPER_BOUNDARY [nM]>
390499212.475202

> <BIOSOLVEIT.HYDE_LIGAND_EFFICIENCY range: ++, +, 0, -, -->
--

> <BIOSOLVEIT.HYDE_LIGAND_LIPOPHILIC_EFFICIENCY range: ++, +, 0, -, -->
--

> <BIOSOLVEIT.INTER_CLASH range: red, yellow, green>
green

> <BIOSOLVEIT.INTRA_CLASH range: red, yellow, green>
green

> <BIOSOLVEIT.LOGP>
2.0442

> <BIOSOLVEIT.MOLECULAR WEIGHT>
402.339

> <BIOSOLVEIT.MOLECULE_CHECKSUM>
LTguMDMxMDQ7MC4zMDg4ODY=

> <BIOSOLVEIT.TORSION_QUALITY range: red, yellow, green, not rotatable>
red

> <BIOSOLVEIT.TPSA>
43.21

> <BIOSOLVEIT.SEESAR_FAVORITE>
favorite

> <smc_score>
0.938

> <QED_score>
0.732

> <distance>
0.771

> <SimilarityPheSA_1>
0.653

> <Smiles>
COc1cc(Cl)c(Cl)cc1CN1CCC(CCN2CCOCC2C)C1=O

> <Similarity_SkelSpheres>
0.603

> <Cluster No>
221.0

> <QueryID>
JAN-GHE-5a013bed-2

> <SimilarityPheSA>
0.6529

> <Postera series>
3-aminopyridine-like

> <PDB_code>
Mpro-x10466

> <Approach>
DGM_focussed_RL

> <ID>
20210618_430

> <SimilarityPheSA_2>
0.71

> <OPTIBRIUM.logD>
1.48621

> <OPTIBRIUM.BBB category>
-

> <OPTIBRIUM.logP>
2.92109

> <OPTIBRIUM.P-gp category>
yes

> <OPTIBRIUM.logS>
2.78479

> <OPTIBRIUM.HIA category>
+

> <OPTIBRIUM.PPB90 category>
low

> <OPTIBRIUM.2D6 affinity category>
medium

> <OPTIBRIUM.hERG pIC50>
5.30012

> <OPTIBRIUM.2C9 pKi>
5.15875

> <OPTIBRIUM.BBB log([brain]:[blood])>
-0.301343

> <OPTIBRIUM.logS @ pH7.4>
2.6953

$$$$
Compound 410_1_01
haSeeSAR  07122114523D 1   1.00000     0.00000     0
SeeSAR 11.0.2 hazemaj
 51 54  0  0  0  0            999 V2000
   14.0069  -20.6979    3.0668 Cl  0  0  0  0  0  0  0  0  0  0  0  0
   14.5748  -19.4361    1.9469 C   0  0  0  0  0  0  0  0  0  0  0  0
   14.0586  -18.1482    2.0466 C   0  0  0  0  0  0  0  0  0  0  0  0
   15.5278  -19.7520    0.9840 C   0  0  0  0  0  0  0  0  0  0  0  0
   13.1341  -17.8624    2.9886 O   0  0  0  0  0  0  0  0  0  0  0  0
   14.5071  -17.1672    1.1685 C   0  0  0  0  0  0  0  0  0  0  0  0
   15.9615  -18.7554    0.1158 C   0  0  0  0  0  0  0  0  0  0  0  0
   13.5036  -17.8301    4.3592 C   0  0  0  0  0  0  0  0  0  0  0  0
   15.4593  -17.4606    0.1982 C   0  0  0  0  0  0  0  0  0  0  0  0
   13.9559  -15.7532    1.2629 C   0  0  0  0  0  0  0  0  0  0  0  0
   17.1809  -19.1490   -1.1197 Cl  0  0  0  0  0  0  0  0  0  0  0  0
   14.7489  -14.9818    2.2307 N   0  3  2  0  0  0  0  0  0  0  0  0
   13.9026  -14.7921    3.4203 C   0  0  0  0  0  0  0  0  0  0  0  0
   15.0483  -13.6855    1.6006 C   0  0  0  0  0  0  0  0  0  0  0  0
   14.5806  -13.9322    4.4772 C   0  0  0  0  0  0  0  0  0  0  0  0
   15.8111  -12.7555    2.5327 C   0  0  0  0  0  0  0  0  0  0  0  0
   15.2284  -12.7515    3.8842 N   0  0  0  0  0  0  0  0  0  0  0  0
   15.2847  -11.5760    4.6266 C   0  0  0  0  0  0  0  0  0  0  0  0
   16.0878  -10.6940    4.3226 O   0  0  0  0  0  0  0  0  0  0  0  0
   14.3962  -11.3897    5.7600 C   0  0  0  0  0  0  0  0  0  0  0  0
   14.7560  -11.7096    7.0689 C   0  0  0  0  0  0  0  0  0  0  0  0
   13.1319  -10.8648    5.5109 C   0  0  0  0  0  0  0  0  0  0  0  0
   13.8483  -11.5003    8.1025 C   0  0  0  0  0  0  0  0  0  0  0  0
   16.0035  -12.2385    7.3945 C   0  0  0  0  0  0  0  0  0  0  0  0
   12.2742  -10.6715    6.5244 N   0  0  0  0  0  0  0  0  0  0  0  0
   12.5995  -10.9723    7.7909 C   0  0  0  0  0  0  0  0  0  0  0  0
   14.1879  -11.8133    9.4147 C   0  0  0  0  0  0  0  0  0  0  0  0
   16.3543  -12.5558    8.7026 C   0  0  0  0  0  0  0  0  0  0  0  0
   15.4365  -12.3414    9.7256 C   0  0  0  0  0  0  0  0  0  0  0  0
   17.5589  -13.0593    8.9543 F   0  0  0  0  0  0  0  0  0  0  0  0
   15.8948  -20.6798    0.9170 H   0  0  0  0  0  0  0  0  0  0  0  0
   12.7034  -17.6045    4.9150 H   0  0  0  0  0  0  0  0  0  0  0  0
   13.8561  -18.7257    4.6307 H   0  0  0  0  0  0  0  0  0  0  0  0
   14.2115  -17.1374    4.4975 H   0  0  0  0  0  0  0  0  0  0  0  0
   15.7783  -16.7516   -0.4307 H   0  0  0  0  0  0  0  0  0  0  0  0
   13.0029  -15.7863    1.5640 H   0  0  0  0  0  0  0  0  0  0  0  0
   14.0070  -15.3150    0.3655 H   0  0  0  0  0  0  0  0  0  0  0  0
   13.6983  -15.6874    3.8162 H   0  0  0  0  0  0  0  0  0  0  0  0
   13.0508  -14.3484    3.1420 H   0  0  0  0  0  0  0  0  0  0  0  0
   14.1878  -13.2469    1.3416 H   0  0  0  0  0  0  0  0  0  0  0  0
   15.6006  -13.8451    0.7824 H   0  0  0  0  0  0  0  0  0  0  0  0
   15.2730  -14.4806    4.9460 H   0  0  0  0  0  0  0  0  0  0  0  0
   13.8935  -13.6278    5.1370 H   0  0  0  0  0  0  0  0  0  0  0  0
   15.7801  -11.8271    2.1625 H   0  0  0  0  0  0  0  0  0  0  0  0
   16.7618  -13.0603    2.5895 H   0  0  0  0  0  0  0  0  0  0  0  0
   12.8626  -10.6314    4.5766 H   0  0  0  0  0  0  0  0  0  0  0  0
   16.6682  -12.3950    6.6639 H   0  0  0  0  0  0  0  0  0  0  0  0
   11.9348  -10.8148    8.5211 H   0  0  0  0  0  0  0  0  0  0  0  0
   13.5239  -11.6564   10.1457 H   0  0  0  0  0  0  0  0  0  0  0  0
   15.6713  -12.5638   10.6719 H   0  0  0  0  0  0  0  0  0  0  0  0
   15.5915  -15.4659    2.4668 H   0  0  0  0  0  0  0  0  0  0  0  0
  1  2  1  0  0  0  0
  2  3  2  0  0  0  0
  2  4  1  0  0  0  0
  3  5  1  0  0  0  0
  3  6  1  0  0  0  0
  4  7  2  0  0  0  0
  5  8  1  0  0  0  0
  6  9  2  0  0  0  0
  6 10  1  0  0  0  0
  7 11  1  0  0  0  0
 10 12  1  0  0  0  0
 12 13  1  0  0  0  0
 12 14  1  0  0  0  0
 13 15  1  0  0  0  0
 14 16  1  0  0  0  0
 15 17  1  0  0  0  0
 17 18  1  0  0  0  0
 18 19  2  0  0  0  0
 18 20  1  0  0  0  0
 20 21  1  0  0  0  0
 20 22  2  0  0  0  0
 21 23  1  0  0  0  0
 21 24  2  0  0  0  0
 22 25  1  0  0  0  0
 23 26  1  0  0  0  0
 23 27  2  0  0  0  0
 24 28  1  0  0  0  0
 27 29  1  0  0  0  0
 28 30  1  0  0  0  0
  7  9  1  0  0  0  0
 16 17  1  0  0  0  0
 25 26  2  0  0  0  0
 28 29  2  0  0  0  0
  4 31  1  0  0  0  0
  8 32  1  0  0  0  0
  8 33  1  0  0  0  0
  8 34  1  0  0  0  0
  9 35  1  0  0  0  0
 10 36  1  0  0  0  0
 10 37  1  0  0  0  0
 13 38  1  0  0  0  0
 13 39  1  0  0  0  0
 14 40  1  0  0  0  0
 14 41  1  0  0  0  0
 15 42  1  0  0  0  0
 15 43  1  0  0  0  0
 16 44  1  0  0  0  0
 16 45  1  0  0  0  0
 22 46  1  0  0  0  0
 24 47  1  0  0  0  0
 26 48  1  0  0  0  0
 27 49  1  0  0  0  0
 29 50  1  0  0  0  0
 12 51  1  0  0  0  0
M  CHG  1  12   1
M  END
> <BIOSOLVEIT.HYDE_ESTIMATED_AFFINITY_LOWER_BOUNDARY [nM]>
20213394.168014

> <BIOSOLVEIT.HYDE_ESTIMATED_AFFINITY_UPPER_BOUNDARY [nM]>
2008320221.636804

> <BIOSOLVEIT.HYDE_LIGAND_EFFICIENCY range: ++, +, 0, -, -->
--

> <BIOSOLVEIT.HYDE_LIGAND_LIPOPHILIC_EFFICIENCY range: ++, +, 0, -, -->
--

> <BIOSOLVEIT.INTER_CLASH range: red, yellow, green>
green

> <BIOSOLVEIT.INTRA_CLASH range: red, yellow, green>
green

> <BIOSOLVEIT.LOGP>
3.2302

> <BIOSOLVEIT.MOLECULAR WEIGHT>
449.331

> <BIOSOLVEIT.MOLECULE_CHECKSUM>
LTMuOTcxNDM7MC4xMzIzODE=

> <BIOSOLVEIT.TORSION_QUALITY range: red, yellow, green, not rotatable>
green

> <BIOSOLVEIT.TPSA>
46.87

> <BIOSOLVEIT.SEESAR_FAVORITE>
favorite

> <smc_score>
1.0

> <QED_score>
0.583

> <distance>
0.58

> <SimilarityPheSA_1>
0.691

> <Smiles>
COc1c(Cl)cc(Cl)cc1CN1CCN(C(=O)c2cncc3ccc(F)cc23)CC1

> <Similarity_SkelSpheres>
0.734

> <Cluster No>
209.0

> <QueryID>
MAR-UCB-f313ec4d-2

> <SimilarityPheSA>
0.6914

> <Postera series>
None

> <PDB_code>
Mpro-x11813

> <Approach>
DGM_focussed_RL

> <ID>
20210618_409

> <SimilarityPheSA_2>
0.768

> <OPTIBRIUM.logD>
2.84582

> <OPTIBRIUM.BBB category>
-

> <OPTIBRIUM.logP>
2.8879

> <OPTIBRIUM.P-gp category>
yes

> <OPTIBRIUM.logS>
1.51644

> <OPTIBRIUM.HIA category>
+

> <OPTIBRIUM.PPB90 category>
high

> <OPTIBRIUM.2D6 affinity category>
medium

> <OPTIBRIUM.hERG pIC50>
5.9833

> <OPTIBRIUM.2C9 pKi>
5.75571

> <OPTIBRIUM.BBB log([brain]:[blood])>
-0.424971

> <OPTIBRIUM.logS @ pH7.4>
1.76415

$$$$
Compound 410_1_02
haSeeSAR  07122114523D 1   1.00000     0.00000     0
SeeSAR 11.0.2 hazemaj
 51 54  0  0  0  0            999 V2000
   17.1266  -19.3750   -1.1190 Cl  0  0  0  0  0  0  0  0  0  0  0  0
   16.3417  -18.9537    0.4223 C   0  0  0  0  0  0  0  0  0  0  0  0
   15.6152  -17.7715    0.5209 C   0  0  0  0  0  0  0  0  0  0  0  0
   16.4642  -19.8106    1.5113 C   0  0  0  0  0  0  0  0  0  0  0  0
   15.5085  -16.9534   -0.5483 O   0  0  0  0  0  0  0  0  0  0  0  0
   15.0043  -17.4487    1.7279 C   0  0  0  0  0  0  0  0  0  0  0  0
   15.8454  -19.4675    2.7090 C   0  0  0  0  0  0  0  0  0  0  0  0
   16.4444  -15.9016   -0.7337 C   0  0  0  0  0  0  0  0  0  0  0  0
   15.1134  -18.2907    2.8296 C   0  0  0  0  0  0  0  0  0  0  0  0
   14.2045  -16.1616    1.8548 C   0  0  0  0  0  0  0  0  0  0  0  0
   15.9957  -20.5573    4.1082 Cl  0  0  0  0  0  0  0  0  0  0  0  0
   15.0336  -15.1307    2.4954 N   0  3  2  0  0  0  0  0  0  0  0  0
   14.6662  -15.1132    3.9208 C   0  0  0  0  0  0  0  0  0  0  0  0
   14.6879  -13.8487    1.8595 C   0  0  0  0  0  0  0  0  0  0  0  0
   15.4003  -14.0250    4.6908 C   0  0  0  0  0  0  0  0  0  0  0  0
   15.4307  -12.6776    2.4855 C   0  0  0  0  0  0  0  0  0  0  0  0
   15.4097  -12.7504    3.9553 N   0  0  0  0  0  0  0  0  0  0  0  0
   15.3873  -11.5613    4.6775 C   0  0  0  0  0  0  0  0  0  0  0  0
   16.1687  -10.6536    4.3930 O   0  0  0  0  0  0  0  0  0  0  0  0
   14.4422  -11.3911    5.7668 C   0  0  0  0  0  0  0  0  0  0  0  0
   14.7450  -11.7031    7.0919 C   0  0  0  0  0  0  0  0  0  0  0  0
   13.1817  -10.8906    5.4567 C   0  0  0  0  0  0  0  0  0  0  0  0
   13.7852  -11.5102    8.0806 C   0  0  0  0  0  0  0  0  0  0  0  0
   15.9853  -12.2078    7.4777 C   0  0  0  0  0  0  0  0  0  0  0  0
   12.2729  -10.7130    6.4277 N   0  0  0  0  0  0  0  0  0  0  0  0
   12.5429  -11.0064    7.7088 C   0  0  0  0  0  0  0  0  0  0  0  0
   14.0675  -11.8158    9.4081 C   0  0  0  0  0  0  0  0  0  0  0  0
   16.2792  -12.5174    8.8016 C   0  0  0  0  0  0  0  0  0  0  0  0
   15.3097  -12.3196    9.7793 C   0  0  0  0  0  0  0  0  0  0  0  0
   17.4799  -12.9976    9.1115 F   0  0  0  0  0  0  0  0  0  0  0  0
   16.9881  -20.6589    1.4344 H   0  0  0  0  0  0  0  0  0  0  0  0
   16.2193  -15.3985   -1.5681 H   0  0  0  0  0  0  0  0  0  0  0  0
   16.4082  -15.2813    0.0498 H   0  0  0  0  0  0  0  0  0  0  0  0
   17.3647  -16.2845   -0.8134 H   0  0  0  0  0  0  0  0  0  0  0  0
   14.6723  -18.0538    3.6952 H   0  0  0  0  0  0  0  0  0  0  0  0
   13.3908  -16.3284    2.4115 H   0  0  0  0  0  0  0  0  0  0  0  0
   13.9283  -15.8499    0.9456 H   0  0  0  0  0  0  0  0  0  0  0  0
   14.8927  -16.0005    4.3226 H   0  0  0  0  0  0  0  0  0  0  0  0
   13.6820  -14.9540    3.9977 H   0  0  0  0  0  0  0  0  0  0  0  0
   13.7046  -13.6956    1.9573 H   0  0  0  0  0  0  0  0  0  0  0  0
   14.9228  -13.8971    0.8887 H   0  0  0  0  0  0  0  0  0  0  0  0
   16.3441  -14.3173    4.8448 H   0  0  0  0  0  0  0  0  0  0  0  0
   14.9459  -13.8880    5.5710 H   0  0  0  0  0  0  0  0  0  0  0  0
   14.9961  -11.8247    2.1960 H   0  0  0  0  0  0  0  0  0  0  0  0
   16.3806  -12.6906    2.1729 H   0  0  0  0  0  0  0  0  0  0  0  0
   12.9529  -10.6631    4.5102 H   0  0  0  0  0  0  0  0  0  0  0  0
   16.6871  -12.3522    6.7800 H   0  0  0  0  0  0  0  0  0  0  0  0
   11.8412  -10.8610    8.4062 H   0  0  0  0  0  0  0  0  0  0  0  0
   13.3664  -11.6710   10.1063 H   0  0  0  0  0  0  0  0  0  0  0  0
   15.5032  -12.5367   10.7361 H   0  0  0  0  0  0  0  0  0  0  0  0
   16.0060  -15.3340    2.3809 H   0  0  0  0  0  0  0  0  0  0  0  0
  1  2  1  0  0  0  0
  2  3  2  0  0  0  0
  2  4  1  0  0  0  0
  3  5  1  0  0  0  0
  3  6  1  0  0  0  0
  4  7  2  0  0  0  0
  5  8  1  0  0  0  0
  6  9  2  0  0  0  0
  6 10  1  0  0  0  0
  7 11  1  0  0  0  0
 10 12  1  0  0  0  0
 12 13  1  0  0  0  0
 12 14  1  0  0  0  0
 13 15  1  0  0  0  0
 14 16  1  0  0  0  0
 15 17  1  0  0  0  0
 17 18  1  0  0  0  0
 18 19  2  0  0  0  0
 18 20  1  0  0  0  0
 20 21  1  0  0  0  0
 20 22  2  0  0  0  0
 21 23  1  0  0  0  0
 21 24  2  0  0  0  0
 22 25  1  0  0  0  0
 23 26  1  0  0  0  0
 23 27  2  0  0  0  0
 24 28  1  0  0  0  0
 27 29  1  0  0  0  0
 28 30  1  0  0  0  0
  7  9  1  0  0  0  0
 16 17  1  0  0  0  0
 25 26  2  0  0  0  0
 28 29  2  0  0  0  0
  4 31  1  0  0  0  0
  8 32  1  0  0  0  0
  8 33  1  0  0  0  0
  8 34  1  0  0  0  0
  9 35  1  0  0  0  0
 10 36  1  0  0  0  0
 10 37  1  0  0  0  0
 13 38  1  0  0  0  0
 13 39  1  0  0  0  0
 14 40  1  0  0  0  0
 14 41  1  0  0  0  0
 15 42  1  0  0  0  0
 15 43  1  0  0  0  0
 16 44  1  0  0  0  0
 16 45  1  0  0  0  0
 22 46  1  0  0  0  0
 24 47  1  0  0  0  0
 26 48  1  0  0  0  0
 27 49  1  0  0  0  0
 29 50  1  0  0  0  0
 12 51  1  0  0  0  0
M  CHG  1  12   1
M  END
> <BIOSOLVEIT.HYDE_ESTIMATED_AFFINITY_LOWER_BOUNDARY [nM]>
12204253.701820

> <BIOSOLVEIT.HYDE_ESTIMATED_AFFINITY_UPPER_BOUNDARY [nM]>
1212564762.534304

> <BIOSOLVEIT.HYDE_LIGAND_EFFICIENCY range: ++, +, 0, -, -->
--

> <BIOSOLVEIT.HYDE_LIGAND_LIPOPHILIC_EFFICIENCY range: ++, +, 0, -, -->
--

> <BIOSOLVEIT.INTER_CLASH range: red, yellow, green>
green

> <BIOSOLVEIT.INTRA_CLASH range: red, yellow, green>
green

> <BIOSOLVEIT.LOGP>
3.2302

> <BIOSOLVEIT.MOLECULAR WEIGHT>
449.331

> <BIOSOLVEIT.MOLECULE_CHECKSUM>
LTUuMjIyMjE7MC4xNzQwNzQ=

> <BIOSOLVEIT.TORSION_QUALITY range: red, yellow, green, not rotatable>
yellow

> <BIOSOLVEIT.TPSA>
46.87

> <BIOSOLVEIT.SEESAR_FAVORITE>
favorite

> <smc_score>
1.0

> <QED_score>
0.583

> <distance>
0.58

> <SimilarityPheSA_1>
0.691

> <Smiles>
COc1c(Cl)cc(Cl)cc1CN1CCN(C(=O)c2cncc3ccc(F)cc23)CC1

> <Similarity_SkelSpheres>
0.734

> <Cluster No>
209.0

> <QueryID>
MAR-UCB-f313ec4d-2

> <SimilarityPheSA>
0.6914

> <Postera series>
None

> <PDB_code>
Mpro-x11813

> <Approach>
DGM_focussed_RL

> <ID>
20210618_409

> <SimilarityPheSA_2>
0.768

> <OPTIBRIUM.logD>
2.84582

> <OPTIBRIUM.BBB category>
-

> <OPTIBRIUM.logP>
2.8879

> <OPTIBRIUM.P-gp category>
yes

> <OPTIBRIUM.logS>
1.51644

> <OPTIBRIUM.HIA category>
+

> <OPTIBRIUM.PPB90 category>
high

> <OPTIBRIUM.2D6 affinity category>
medium

> <OPTIBRIUM.hERG pIC50>
5.9833

> <OPTIBRIUM.2C9 pKi>
5.75571

> <OPTIBRIUM.BBB log([brain]:[blood])>
-0.424971

> <OPTIBRIUM.logS @ pH7.4>
1.76415

$$$$
Compound 410_1_03
haSeeSAR  07122114523D 1   1.00000     0.00000     0
SeeSAR 11.0.2 hazemaj
 51 54  0  0  0  0            999 V2000
   14.0008  -20.4670    3.1311 Cl  0  0  0  0  0  0  0  0  0  0  0  0
   14.6374  -19.3088    1.9385 C   0  0  0  0  0  0  0  0  0  0  0  0
   14.1917  -17.9912    1.9569 C   0  0  0  0  0  0  0  0  0  0  0  0
   15.5728  -19.7340    1.0007 C   0  0  0  0  0  0  0  0  0  0  0  0
   13.2831  -17.5986    2.8757 O   0  0  0  0  0  0  0  0  0  0  0  0
   14.6935  -17.0915    1.0225 C   0  0  0  0  0  0  0  0  0  0  0  0
   16.0607  -18.8175    0.0752 C   0  0  0  0  0  0  0  0  0  0  0  0
   11.8993  -17.6145    2.5576 C   0  0  0  0  0  0  0  0  0  0  0  0
   15.6295  -17.4949    0.0760 C   0  0  0  0  0  0  0  0  0  0  0  0
   14.2197  -15.6467    1.0278 C   0  0  0  0  0  0  0  0  0  0  0  0
   17.2582  -19.3515   -1.1287 Cl  0  0  0  0  0  0  0  0  0  0  0  0
   14.9573  -14.8928    2.0518 N   0  3  2  0  0  0  0  0  0  0  0  0
   14.0446  -14.7198    3.1937 C   0  0  0  0  0  0  0  0  0  0  0  0
   15.2947  -13.5875    1.4605 C   0  0  0  0  0  0  0  0  0  0  0  0
   14.6622  -13.8785    4.3013 C   0  0  0  0  0  0  0  0  0  0  0  0
   16.0044  -12.6746    2.4495 C   0  0  0  0  0  0  0  0  0  0  0  0
   15.3452  -12.6902    3.7653 N   0  0  0  0  0  0  0  0  0  0  0  0
   15.3610  -11.5269    4.5284 C   0  0  0  0  0  0  0  0  0  0  0  0
   16.1512  -10.6230    4.2563 O   0  0  0  0  0  0  0  0  0  0  0  0
   14.4455  -11.3789    5.6459 C   0  0  0  0  0  0  0  0  0  0  0  0
   14.7862  -11.7103    6.9570 C   0  0  0  0  0  0  0  0  0  0  0  0
   13.1745  -10.8801    5.3786 C   0  0  0  0  0  0  0  0  0  0  0  0
   13.8531  -11.5382    7.9747 C   0  0  0  0  0  0  0  0  0  0  0  0
   16.0391  -12.2146    7.3004 C   0  0  0  0  0  0  0  0  0  0  0  0
   12.2919  -10.7227    6.3769 N   0  0  0  0  0  0  0  0  0  0  0  0
   12.5986  -11.0351    7.6452 C   0  0  0  0  0  0  0  0  0  0  0  0
   14.1733  -11.8633    9.2887 C   0  0  0  0  0  0  0  0  0  0  0  0
   16.3708  -12.5436    8.6106 C   0  0  0  0  0  0  0  0  0  0  0  0
   15.4277  -12.3665    9.6176 C   0  0  0  0  0  0  0  0  0  0  0  0
   17.5818  -13.0224    8.8797 F   0  0  0  0  0  0  0  0  0  0  0  0
   15.8890  -20.6827    0.9923 H   0  0  0  0  0  0  0  0  0  0  0  0
   11.3724  -17.2956    3.3456 H   0  0  0  0  0  0  0  0  0  0  0  0
   11.7296  -17.0124    1.7775 H   0  0  0  0  0  0  0  0  0  0  0  0
   11.6212  -18.5467    2.3260 H   0  0  0  0  0  0  0  0  0  0  0  0
   15.9869  -16.8440   -0.5939 H   0  0  0  0  0  0  0  0  0  0  0  0
   13.2413  -15.6174    1.2326 H   0  0  0  0  0  0  0  0  0  0  0  0
   14.3847  -15.2385    0.1299 H   0  0  0  0  0  0  0  0  0  0  0  0
   13.8163  -15.6206    3.5628 H   0  0  0  0  0  0  0  0  0  0  0  0
   13.2109  -14.2693    2.8742 H   0  0  0  0  0  0  0  0  0  0  0  0
   14.4513  -13.1425    1.1597 H   0  0  0  0  0  0  0  0  0  0  0  0
   15.8928  -13.7357    0.6729 H   0  0  0  0  0  0  0  0  0  0  0  0
   15.3257  -14.4361    4.8002 H   0  0  0  0  0  0  0  0  0  0  0  0
   13.9391  -13.5828    4.9254 H   0  0  0  0  0  0  0  0  0  0  0  0
   15.9965  -11.7404    2.0931 H   0  0  0  0  0  0  0  0  0  0  0  0
   16.9497  -12.9827    2.5559 H   0  0  0  0  0  0  0  0  0  0  0  0
   12.9186  -10.6389    4.4424 H   0  0  0  0  0  0  0  0  0  0  0  0
   16.7220  -12.3442    6.5815 H   0  0  0  0  0  0  0  0  0  0  0  0
   11.9156  -10.9045    8.3639 H   0  0  0  0  0  0  0  0  0  0  0  0
   13.4910  -11.7333   10.0083 H   0  0  0  0  0  0  0  0  0  0  0  0
   15.6484  -12.5978   10.5651 H   0  0  0  0  0  0  0  0  0  0  0  0
   15.7840  -15.3830    2.3279 H   0  0  0  0  0  0  0  0  0  0  0  0
  1  2  1  0  0  0  0
  2  3  2  0  0  0  0
  2  4  1  0  0  0  0
  3  5  1  0  0  0  0
  3  6  1  0  0  0  0
  4  7  2  0  0  0  0
  5  8  1  0  0  0  0
  6  9  2  0  0  0  0
  6 10  1  0  0  0  0
  7 11  1  0  0  0  0
 10 12  1  0  0  0  0
 12 13  1  0  0  0  0
 12 14  1  0  0  0  0
 13 15  1  0  0  0  0
 14 16  1  0  0  0  0
 15 17  1  0  0  0  0
 17 18  1  0  0  0  0
 18 19  2  0  0  0  0
 18 20  1  0  0  0  0
 20 21  1  0  0  0  0
 20 22  2  0  0  0  0
 21 23  1  0  0  0  0
 21 24  2  0  0  0  0
 22 25  1  0  0  0  0
 23 26  1  0  0  0  0
 23 27  2  0  0  0  0
 24 28  1  0  0  0  0
 27 29  1  0  0  0  0
 28 30  1  0  0  0  0
  7  9  1  0  0  0  0
 16 17  1  0  0  0  0
 25 26  2  0  0  0  0
 28 29  2  0  0  0  0
  4 31  1  0  0  0  0
  8 32  1  0  0  0  0
  8 33  1  0  0  0  0
  8 34  1  0  0  0  0
  9 35  1  0  0  0  0
 10 36  1  0  0  0  0
 10 37  1  0  0  0  0
 13 38  1  0  0  0  0
 13 39  1  0  0  0  0
 14 40  1  0  0  0  0
 14 41  1  0  0  0  0
 15 42  1  0  0  0  0
 15 43  1  0  0  0  0
 16 44  1  0  0  0  0
 16 45  1  0  0  0  0
 22 46  1  0  0  0  0
 24 47  1  0  0  0  0
 26 48  1  0  0  0  0
 27 49  1  0  0  0  0
 29 50  1  0  0  0  0
 12 51  1  0  0  0  0
M  CHG  1  12   1
M  END
> <BIOSOLVEIT.HYDE_ESTIMATED_AFFINITY_LOWER_BOUNDARY [nM]>
21619006.427466

> <BIOSOLVEIT.HYDE_ESTIMATED_AFFINITY_UPPER_BOUNDARY [nM]>
2147976110.250738

> <BIOSOLVEIT.HYDE_LIGAND_EFFICIENCY range: ++, +, 0, -, -->
--

> <BIOSOLVEIT.HYDE_LIGAND_LIPOPHILIC_EFFICIENCY range: ++, +, 0, -, -->
--

> <BIOSOLVEIT.INTER_CLASH range: red, yellow, green>
green

> <BIOSOLVEIT.INTRA_CLASH range: red, yellow, green>
green

> <BIOSOLVEIT.LOGP>
3.2302

> <BIOSOLVEIT.MOLECULAR WEIGHT>
449.331

> <BIOSOLVEIT.MOLECULE_CHECKSUM>
LTMuODA0Nzc7MC4xMjY4MjY=

> <BIOSOLVEIT.TORSION_QUALITY range: red, yellow, green, not rotatable>
green

> <BIOSOLVEIT.TPSA>
46.87

> <BIOSOLVEIT.SEESAR_FAVORITE>
favorite

> <smc_score>
1.0

> <QED_score>
0.583

> <distance>
0.58

> <SimilarityPheSA_1>
0.691

> <Smiles>
COc1c(Cl)cc(Cl)cc1CN1CCN(C(=O)c2cncc3ccc(F)cc23)CC1

> <Similarity_SkelSpheres>
0.734

> <Cluster No>
209.0

> <QueryID>
MAR-UCB-f313ec4d-2

> <SimilarityPheSA>
0.6914

> <Postera series>
None

> <PDB_code>
Mpro-x11813

> <Approach>
DGM_focussed_RL

> <ID>
20210618_409

> <SimilarityPheSA_2>
0.768

> <OPTIBRIUM.logD>
2.84582

> <OPTIBRIUM.BBB category>
-

> <OPTIBRIUM.logP>
2.8879

> <OPTIBRIUM.P-gp category>
yes

> <OPTIBRIUM.logS>
1.51644

> <OPTIBRIUM.HIA category>
+

> <OPTIBRIUM.PPB90 category>
high

> <OPTIBRIUM.2D6 affinity category>
medium

> <OPTIBRIUM.hERG pIC50>
5.9833

> <OPTIBRIUM.2C9 pKi>
5.75571

> <OPTIBRIUM.BBB log([brain]:[blood])>
-0.424971

> <OPTIBRIUM.logS @ pH7.4>
1.76415

$$$$
Compound 410_1_04
haSeeSAR  07122114523D 1   1.00000     0.00000     0
SeeSAR 11.0.2 hazemaj
 51 54  0  0  0  0            999 V2000
   14.0010  -20.4673    3.1313 Cl  0  0  0  0  0  0  0  0  0  0  0  0
   14.6374  -19.3089    1.9387 C   0  0  0  0  0  0  0  0  0  0  0  0
   14.1916  -17.9914    1.9572 C   0  0  0  0  0  0  0  0  0  0  0  0
   15.5728  -19.7341    1.0009 C   0  0  0  0  0  0  0  0  0  0  0  0
   13.2830  -17.5989    2.8760 O   0  0  0  0  0  0  0  0  0  0  0  0
   14.6933  -17.0917    1.0228 C   0  0  0  0  0  0  0  0  0  0  0  0
   16.0606  -18.8175    0.0753 C   0  0  0  0  0  0  0  0  0  0  0  0
   11.8992  -17.6145    2.5579 C   0  0  0  0  0  0  0  0  0  0  0  0
   15.6293  -17.4949    0.0762 C   0  0  0  0  0  0  0  0  0  0  0  0
   14.2193  -15.6468    1.0282 C   0  0  0  0  0  0  0  0  0  0  0  0
   17.2580  -19.3513   -1.1286 Cl  0  0  0  0  0  0  0  0  0  0  0  0
   14.9570  -14.8930    2.0520 N   0  3  2  0  0  0  0  0  0  0  0  0
   14.0445  -14.7199    3.1941 C   0  0  0  0  0  0  0  0  0  0  0  0
   15.2944  -13.5876    1.4608 C   0  0  0  0  0  0  0  0  0  0  0  0
   14.6622  -13.8786    4.3016 C   0  0  0  0  0  0  0  0  0  0  0  0
   16.0042  -12.6746    2.4497 C   0  0  0  0  0  0  0  0  0  0  0  0
   15.3450  -12.6903    3.7655 N   0  0  0  0  0  0  0  0  0  0  0  0
   15.3610  -11.5269    4.5287 C   0  0  0  0  0  0  0  0  0  0  0  0
   16.1511  -10.6231    4.2564 O   0  0  0  0  0  0  0  0  0  0  0  0
   14.4455  -11.3790    5.6460 C   0  0  0  0  0  0  0  0  0  0  0  0
   14.7861  -11.7103    6.9572 C   0  0  0  0  0  0  0  0  0  0  0  0
   13.1744  -10.8801    5.3788 C   0  0  0  0  0  0  0  0  0  0  0  0
   13.8530  -11.5381    7.9749 C   0  0  0  0  0  0  0  0  0  0  0  0
   16.0390  -12.2147    7.3006 C   0  0  0  0  0  0  0  0  0  0  0  0
   12.2919  -10.7227    6.3771 N   0  0  0  0  0  0  0  0  0  0  0  0
   12.5986  -11.0350    7.6453 C   0  0  0  0  0  0  0  0  0  0  0  0
   14.1732  -11.8632    9.2889 C   0  0  0  0  0  0  0  0  0  0  0  0
   16.3707  -12.5436    8.6109 C   0  0  0  0  0  0  0  0  0  0  0  0
   15.4276  -12.3665    9.6179 C   0  0  0  0  0  0  0  0  0  0  0  0
   17.5817  -13.0223    8.8799 F   0  0  0  0  0  0  0  0  0  0  0  0
   15.8891  -20.6828    0.9924 H   0  0  0  0  0  0  0  0  0  0  0  0
   11.3725  -17.2958    3.3459 H   0  0  0  0  0  0  0  0  0  0  0  0
   11.7297  -17.0122    1.7778 H   0  0  0  0  0  0  0  0  0  0  0  0
   11.6210  -18.5466    2.3260 H   0  0  0  0  0  0  0  0  0  0  0  0
   15.9866  -16.8440   -0.5936 H   0  0  0  0  0  0  0  0  0  0  0  0
   13.2410  -15.6177    1.2331 H   0  0  0  0  0  0  0  0  0  0  0  0
   14.3842  -15.2386    0.1303 H   0  0  0  0  0  0  0  0  0  0  0  0
   13.8162  -15.6207    3.5632 H   0  0  0  0  0  0  0  0  0  0  0  0
   13.2108  -14.2694    2.8746 H   0  0  0  0  0  0  0  0  0  0  0  0
   14.4509  -13.1426    1.1600 H   0  0  0  0  0  0  0  0  0  0  0  0
   15.8924  -13.7357    0.6731 H   0  0  0  0  0  0  0  0  0  0  0  0
   15.3257  -14.4362    4.8004 H   0  0  0  0  0  0  0  0  0  0  0  0
   13.9392  -13.5829    4.9258 H   0  0  0  0  0  0  0  0  0  0  0  0
   15.9962  -11.7404    2.0932 H   0  0  0  0  0  0  0  0  0  0  0  0
   16.9496  -12.9829    2.5559 H   0  0  0  0  0  0  0  0  0  0  0  0
   12.9186  -10.6390    4.4426 H   0  0  0  0  0  0  0  0  0  0  0  0
   16.7219  -12.3443    6.5817 H   0  0  0  0  0  0  0  0  0  0  0  0
   11.9156  -10.9043    8.3640 H   0  0  0  0  0  0  0  0  0  0  0  0
   13.4909  -11.7331   10.0084 H   0  0  0  0  0  0  0  0  0  0  0  0
   15.6483  -12.5977   10.5654 H   0  0  0  0  0  0  0  0  0  0  0  0
   15.7839  -15.3830    2.3282 H   0  0  0  0  0  0  0  0  0  0  0  0
  1  2  1  0  0  0  0
  2  3  2  0  0  0  0
  2  4  1  0  0  0  0
  3  5  1  0  0  0  0
  3  6  1  0  0  0  0
  4  7  2  0  0  0  0
  5  8  1  0  0  0  0
  6  9  2  0  0  0  0
  6 10  1  0  0  0  0
  7 11  1  0  0  0  0
 10 12  1  0  0  0  0
 12 13  1  0  0  0  0
 12 14  1  0  0  0  0
 13 15  1  0  0  0  0
 14 16  1  0  0  0  0
 15 17  1  0  0  0  0
 17 18  1  0  0  0  0
 18 19  2  0  0  0  0
 18 20  1  0  0  0  0
 20 21  1  0  0  0  0
 20 22  2  0  0  0  0
 21 23  1  0  0  0  0
 21 24  2  0  0  0  0
 22 25  1  0  0  0  0
 23 26  1  0  0  0  0
 23 27  2  0  0  0  0
 24 28  1  0  0  0  0
 27 29  1  0  0  0  0
 28 30  1  0  0  0  0
  7  9  1  0  0  0  0
 16 17  1  0  0  0  0
 25 26  2  0  0  0  0
 28 29  2  0  0  0  0
  4 31  1  0  0  0  0
  8 32  1  0  0  0  0
  8 33  1  0  0  0  0
  8 34  1  0  0  0  0
  9 35  1  0  0  0  0
 10 36  1  0  0  0  0
 10 37  1  0  0  0  0
 13 38  1  0  0  0  0
 13 39  1  0  0  0  0
 14 40  1  0  0  0  0
 14 41  1  0  0  0  0
 15 42  1  0  0  0  0
 15 43  1  0  0  0  0
 16 44  1  0  0  0  0
 16 45  1  0  0  0  0
 22 46  1  0  0  0  0
 24 47  1  0  0  0  0
 26 48  1  0  0  0  0
 27 49  1  0  0  0  0
 29 50  1  0  0  0  0
 12 51  1  0  0  0  0
M  CHG  1  12   1
M  END
> <BIOSOLVEIT.HYDE_ESTIMATED_AFFINITY_LOWER_BOUNDARY [nM]>
21693598.730445

> <BIOSOLVEIT.HYDE_ESTIMATED_AFFINITY_UPPER_BOUNDARY [nM]>
2155387296.576304

> <BIOSOLVEIT.HYDE_LIGAND_EFFICIENCY range: ++, +, 0, -, -->
--

> <BIOSOLVEIT.HYDE_LIGAND_LIPOPHILIC_EFFICIENCY range: ++, +, 0, -, -->
--

> <BIOSOLVEIT.INTER_CLASH range: red, yellow, green>
green

> <BIOSOLVEIT.INTRA_CLASH range: red, yellow, green>
green

> <BIOSOLVEIT.LOGP>
3.2302

> <BIOSOLVEIT.MOLECULAR WEIGHT>
449.331

> <BIOSOLVEIT.MOLECULE_CHECKSUM>
LTMuNzk2MjM7MC4xMjY1NDE=

> <BIOSOLVEIT.TORSION_QUALITY range: red, yellow, green, not rotatable>
green

> <BIOSOLVEIT.TPSA>
46.87

> <BIOSOLVEIT.SEESAR_FAVORITE>
favorite

> <smc_score>
1.0

> <QED_score>
0.583

> <distance>
0.58

> <SimilarityPheSA_1>
0.691

> <Smiles>
COc1c(Cl)cc(Cl)cc1CN1CCN(C(=O)c2cncc3ccc(F)cc23)CC1

> <Similarity_SkelSpheres>
0.734

> <Cluster No>
209.0

> <QueryID>
MAR-UCB-f313ec4d-2

> <SimilarityPheSA>
0.6914

> <Postera series>
None

> <PDB_code>
Mpro-x11813

> <Approach>
DGM_focussed_RL

> <ID>
20210618_409

> <SimilarityPheSA_2>
0.768

> <OPTIBRIUM.logD>
2.84582

> <OPTIBRIUM.BBB category>
-

> <OPTIBRIUM.logP>
2.8879

> <OPTIBRIUM.P-gp category>
yes

> <OPTIBRIUM.logS>
1.51644

> <OPTIBRIUM.HIA category>
+

> <OPTIBRIUM.PPB90 category>
high

> <OPTIBRIUM.2D6 affinity category>
medium

> <OPTIBRIUM.hERG pIC50>
5.9833

> <OPTIBRIUM.2C9 pKi>
5.75571

> <OPTIBRIUM.BBB log([brain]:[blood])>
-0.424971

> <OPTIBRIUM.logS @ pH7.4>
1.76415

$$$$
Compound 410_1_05
haSeeSAR  07122114523D 1   1.00000     0.00000     0
SeeSAR 11.0.2 hazemaj
 51 54  0  0  0  0            999 V2000
   17.0327  -20.8767    0.6090 Cl  0  0  0  0  0  0  0  0  0  0  0  0
   16.4281  -19.2037    0.5430 C   0  0  0  0  0  0  0  0  0  0  0  0
   15.8638  -18.6333    1.6793 C   0  0  0  0  0  0  0  0  0  0  0  0
   16.5258  -18.4853   -0.6443 C   0  0  0  0  0  0  0  0  0  0  0  0
   15.7784  -19.3480    2.8220 O   0  0  0  0  0  0  0  0  0  0  0  0
   15.3938  -17.3258    1.6207 C   0  0  0  0  0  0  0  0  0  0  0  0
   16.0488  -17.1792   -0.6805 C   0  0  0  0  0  0  0  0  0  0  0  0
   14.6274  -20.1383    3.0809 C   0  0  0  0  0  0  0  0  0  0  0  0
   15.4814  -16.5889    0.4443 C   0  0  0  0  0  0  0  0  0  0  0  0
   14.7751  -16.6844    2.8528 C   0  0  0  0  0  0  0  0  0  0  0  0
   16.1695  -16.2512   -2.1946 Cl  0  0  0  0  0  0  0  0  0  0  0  0
   15.4445  -15.4050    3.1277 N   0  3  2  0  0  0  0  0  0  0  0  0
   15.5434  -15.2814    4.5912 C   0  0  0  0  0  0  0  0  0  0  0  0
   14.5821  -14.3454    2.5792 C   0  0  0  0  0  0  0  0  0  0  0  0
   16.1502  -13.9521    5.0166 C   0  0  0  0  0  0  0  0  0  0  0  0
   15.1299  -12.9542    2.8619 C   0  0  0  0  0  0  0  0  0  0  0  0
   15.5827  -12.8272    4.2564 N   0  0  0  0  0  0  0  0  0  0  0  0
   15.4581  -11.5914    4.8837 C   0  0  0  0  0  0  0  0  0  0  0  0
   16.1898  -10.6577    4.5549 O   0  0  0  0  0  0  0  0  0  0  0  0
   14.4647  -11.4032    5.9260 C   0  0  0  0  0  0  0  0  0  0  0  0
   14.7043  -11.7001    7.2674 C   0  0  0  0  0  0  0  0  0  0  0  0
   13.2223  -10.9005    5.5520 C   0  0  0  0  0  0  0  0  0  0  0  0
   13.7011  -11.4903    8.2083 C   0  0  0  0  0  0  0  0  0  0  0  0
   15.9229  -12.2059    7.7161 C   0  0  0  0  0  0  0  0  0  0  0  0
   12.2708  -10.7064    6.4777 N   0  0  0  0  0  0  0  0  0  0  0  0
   12.4799  -10.9853    7.7734 C   0  0  0  0  0  0  0  0  0  0  0  0
   13.9202  -11.7807    9.5509 C   0  0  0  0  0  0  0  0  0  0  0  0
   16.1537  -12.5004    9.0559 C   0  0  0  0  0  0  0  0  0  0  0  0
   15.1412  -12.2859    9.9852 C   0  0  0  0  0  0  0  0  0  0  0  0
   17.3362  -12.9825    9.4267 F   0  0  0  0  0  0  0  0  0  0  0  0
   16.9322  -18.9009   -1.4580 H   0  0  0  0  0  0  0  0  0  0  0  0
   14.7297  -20.5969    3.9636 H   0  0  0  0  0  0  0  0  0  0  0  0
   13.8180  -19.5516    3.1018 H   0  0  0  0  0  0  0  0  0  0  0  0
   14.5243  -20.8232    2.3595 H   0  0  0  0  0  0  0  0  0  0  0  0
   15.1417  -15.6490    0.4075 H   0  0  0  0  0  0  0  0  0  0  0  0
   14.8865  -17.2942    3.6375 H   0  0  0  0  0  0  0  0  0  0  0  0
   13.8014  -16.5233    2.6915 H   0  0  0  0  0  0  0  0  0  0  0  0
   16.1169  -16.0231    4.9391 H   0  0  0  0  0  0  0  0  0  0  0  0
   14.6265  -15.3570    4.9835 H   0  0  0  0  0  0  0  0  0  0  0  0
   13.6742  -14.4237    2.9910 H   0  0  0  0  0  0  0  0  0  0  0  0
   14.5109  -14.4684    1.5894 H   0  0  0  0  0  0  0  0  0  0  0  0
   17.1377  -13.9825    4.8620 H   0  0  0  0  0  0  0  0  0  0  0  0
   15.9693  -13.8099    5.9897 H   0  0  0  0  0  0  0  0  0  0  0  0
   14.4107  -12.2808    2.6909 H   0  0  0  0  0  0  0  0  0  0  0  0
   15.9026  -12.7790    2.2519 H   0  0  0  0  0  0  0  0  0  0  0  0
   13.0387  -10.6838    4.5932 H   0  0  0  0  0  0  0  0  0  0  0  0
   16.6551  -12.3623    7.0534 H   0  0  0  0  0  0  0  0  0  0  0  0
   11.7476  -10.8278    8.4359 H   0  0  0  0  0  0  0  0  0  0  0  0
   13.1884  -11.6239   10.2143 H   0  0  0  0  0  0  0  0  0  0  0  0
   15.2892  -12.4920   10.9525 H   0  0  0  0  0  0  0  0  0  0  0  0
   16.3510  -15.3798    2.7063 H   0  0  0  0  0  0  0  0  0  0  0  0
  1  2  1  0  0  0  0
  2  3  2  0  0  0  0
  2  4  1  0  0  0  0
  3  5  1  0  0  0  0
  3  6  1  0  0  0  0
  4  7  2  0  0  0  0
  5  8  1  0  0  0  0
  6  9  2  0  0  0  0
  6 10  1  0  0  0  0
  7 11  1  0  0  0  0
 10 12  1  0  0  0  0
 12 13  1  0  0  0  0
 12 14  1  0  0  0  0
 13 15  1  0  0  0  0
 14 16  1  0  0  0  0
 15 17  1  0  0  0  0
 17 18  1  0  0  0  0
 18 19  2  0  0  0  0
 18 20  1  0  0  0  0
 20 21  1  0  0  0  0
 20 22  2  0  0  0  0
 21 23  1  0  0  0  0
 21 24  2  0  0  0  0
 22 25  1  0  0  0  0
 23 26  1  0  0  0  0
 23 27  2  0  0  0  0
 24 28  1  0  0  0  0
 27 29  1  0  0  0  0
 28 30  1  0  0  0  0
  7  9  1  0  0  0  0
 16 17  1  0  0  0  0
 25 26  2  0  0  0  0
 28 29  2  0  0  0  0
  4 31  1  0  0  0  0
  8 32  1  0  0  0  0
  8 33  1  0  0  0  0
  8 34  1  0  0  0  0
  9 35  1  0  0  0  0
 10 36  1  0  0  0  0
 10 37  1  0  0  0  0
 13 38  1  0  0  0  0
 13 39  1  0  0  0  0
 14 40  1  0  0  0  0
 14 41  1  0  0  0  0
 15 42  1  0  0  0  0
 15 43  1  0  0  0  0
 16 44  1  0  0  0  0
 16 45  1  0  0  0  0
 22 46  1  0  0  0  0
 24 47  1  0  0  0  0
 26 48  1  0  0  0  0
 27 49  1  0  0  0  0
 29 50  1  0  0  0  0
 12 51  1  0  0  0  0
M  CHG  1  12   1
M  END
> <BIOSOLVEIT.HYDE_ESTIMATED_AFFINITY_LOWER_BOUNDARY [nM]>
1172110.990927

> <BIOSOLVEIT.HYDE_ESTIMATED_AFFINITY_UPPER_BOUNDARY [nM]>
116456157.017211

> <BIOSOLVEIT.HYDE_LIGAND_EFFICIENCY range: ++, +, 0, -, -->
--

> <BIOSOLVEIT.HYDE_LIGAND_LIPOPHILIC_EFFICIENCY range: ++, +, 0, -, -->
--

> <BIOSOLVEIT.INTER_CLASH range: red, yellow, green>
green

> <BIOSOLVEIT.INTRA_CLASH range: red, yellow, green>
green

> <BIOSOLVEIT.LOGP>
3.2302

> <BIOSOLVEIT.MOLECULAR WEIGHT>
449.331

> <BIOSOLVEIT.MOLECULE_CHECKSUM>
LTExLjAzMDQ7MC4zNjc2Nzg=

> <BIOSOLVEIT.TORSION_QUALITY range: red, yellow, green, not rotatable>
yellow

> <BIOSOLVEIT.TPSA>
46.87

> <BIOSOLVEIT.SEESAR_FAVORITE>
favorite

> <smc_score>
1.0

> <QED_score>
0.583

> <distance>
0.58

> <SimilarityPheSA_1>
0.691

> <Smiles>
COc1c(Cl)cc(Cl)cc1CN1CCN(C(=O)c2cncc3ccc(F)cc23)CC1

> <Similarity_SkelSpheres>
0.734

> <Cluster No>
209.0

> <QueryID>
MAR-UCB-f313ec4d-2

> <SimilarityPheSA>
0.6914

> <Postera series>
None

> <PDB_code>
Mpro-x11813

> <Approach>
DGM_focussed_RL

> <ID>
20210618_409

> <SimilarityPheSA_2>
0.768

> <OPTIBRIUM.logD>
2.84582

> <OPTIBRIUM.BBB category>
-

> <OPTIBRIUM.logP>
2.8879

> <OPTIBRIUM.P-gp category>
yes

> <OPTIBRIUM.logS>
1.51644

> <OPTIBRIUM.HIA category>
+

> <OPTIBRIUM.PPB90 category>
high

> <OPTIBRIUM.2D6 affinity category>
medium

> <OPTIBRIUM.hERG pIC50>
5.9833

> <OPTIBRIUM.2C9 pKi>
5.75571

> <OPTIBRIUM.BBB log([brain]:[blood])>
-0.424971

> <OPTIBRIUM.logS @ pH7.4>
1.76415

$$$$
Compound 410_1_07
haSeeSAR  07122114523D 1   1.00000     0.00000     0
SeeSAR 11.0.2 hazemaj
 51 54  0  0  0  0            999 V2000
   15.0697  -17.3547   -1.8794 Cl  0  0  0  0  0  0  0  0  0  0  0  0
   15.5741  -17.8743   -0.2533 C   0  0  0  0  0  0  0  0  0  0  0  0
   15.0913  -17.1989    0.8627 C   0  0  0  0  0  0  0  0  0  0  0  0
   16.4461  -18.9495   -0.1164 C   0  0  0  0  0  0  0  0  0  0  0  0
   14.2453  -16.1576    0.7081 O   0  0  0  0  0  0  0  0  0  0  0  0
   15.4891  -17.6104    2.1302 C   0  0  0  0  0  0  0  0  0  0  0  0
   16.8314  -19.3437    1.1607 C   0  0  0  0  0  0  0  0  0  0  0  0
   12.8421  -16.3737    0.7275 C   0  0  0  0  0  0  0  0  0  0  0  0
   16.3601  -18.6830    2.2906 C   0  0  0  0  0  0  0  0  0  0  0  0
   14.9708  -16.8858    3.3624 C   0  0  0  0  0  0  0  0  0  0  0  0
   17.9465  -20.7186    1.3467 Cl  0  0  0  0  0  0  0  0  0  0  0  0
   15.4624  -15.5004    3.3591 N   0  3  2  0  0  0  0  0  0  0  0  0
   16.0462  -15.2521    4.6875 C   0  0  0  0  0  0  0  0  0  0  0  0
   14.2931  -14.6330    3.1409 C   0  0  0  0  0  0  0  0  0  0  0  0
   16.5245  -13.8161    4.8464 C   0  0  0  0  0  0  0  0  0  0  0  0
   14.6563  -13.1561    3.1869 C   0  0  0  0  0  0  0  0  0  0  0  0
   15.5410  -12.8543    4.3238 N   0  0  0  0  0  0  0  0  0  0  0  0
   15.4331  -11.6092    4.9351 C   0  0  0  0  0  0  0  0  0  0  0  0
   16.1667  -10.6852    4.5835 O   0  0  0  0  0  0  0  0  0  0  0  0
   14.4552  -11.3995    5.9879 C   0  0  0  0  0  0  0  0  0  0  0  0
   14.7022  -11.7028    7.3266 C   0  0  0  0  0  0  0  0  0  0  0  0
   13.2208  -10.8686    5.6274 C   0  0  0  0  0  0  0  0  0  0  0  0
   13.7139  -11.4714    8.2782 C   0  0  0  0  0  0  0  0  0  0  0  0
   15.9138  -12.2363    7.7622 C   0  0  0  0  0  0  0  0  0  0  0  0
   12.2834  -10.6541    6.5631 N   0  0  0  0  0  0  0  0  0  0  0  0
   12.4998  -10.9386    7.8563 C   0  0  0  0  0  0  0  0  0  0  0  0
   13.9405  -11.7677    9.6182 C   0  0  0  0  0  0  0  0  0  0  0  0
   16.1519  -12.5371    9.0992 C   0  0  0  0  0  0  0  0  0  0  0  0
   15.1543  -12.3006   10.0394 C   0  0  0  0  0  0  0  0  0  0  0  0
   17.3271  -13.0458    9.4574 F   0  0  0  0  0  0  0  0  0  0  0  0
   16.7902  -19.4309   -0.9226 H   0  0  0  0  0  0  0  0  0  0  0  0
   12.3687  -15.5021    0.6000 H   0  0  0  0  0  0  0  0  0  0  0  0
   12.5911  -17.0004   -0.0102 H   0  0  0  0  0  0  0  0  0  0  0  0
   12.5781  -16.7710    1.6065 H   0  0  0  0  0  0  0  0  0  0  0  0
   16.6432  -18.9747    3.2043 H   0  0  0  0  0  0  0  0  0  0  0  0
   15.2954  -17.3526    4.1850 H   0  0  0  0  0  0  0  0  0  0  0  0
   13.9708  -16.8846    3.3524 H   0  0  0  0  0  0  0  0  0  0  0  0
   16.8242  -15.8669    4.8173 H   0  0  0  0  0  0  0  0  0  0  0  0
   15.3534  -15.4396    5.3839 H   0  0  0  0  0  0  0  0  0  0  0  0
   13.6159  -14.8203    3.8524 H   0  0  0  0  0  0  0  0  0  0  0  0
   13.9010  -14.8403    2.2447 H   0  0  0  0  0  0  0  0  0  0  0  0
   17.3841  -13.7038    4.3479 H   0  0  0  0  0  0  0  0  0  0  0  0
   16.6754  -13.6303    5.8172 H   0  0  0  0  0  0  0  0  0  0  0  0
   13.8181  -12.6178    3.2754 H   0  0  0  0  0  0  0  0  0  0  0  0
   15.1228  -12.9094    2.3375 H   0  0  0  0  0  0  0  0  0  0  0  0
   13.0320  -10.6470    4.6707 H   0  0  0  0  0  0  0  0  0  0  0  0
   16.6354  -12.4086    7.0918 H   0  0  0  0  0  0  0  0  0  0  0  0
   11.7783  -10.7652    8.5266 H   0  0  0  0  0  0  0  0  0  0  0  0
   13.2194  -11.5951   10.2893 H   0  0  0  0  0  0  0  0  0  0  0  0
   15.3078  -12.5108   11.0049 H   0  0  0  0  0  0  0  0  0  0  0  0
   16.1442  -15.3664    2.6400 H   0  0  0  0  0  0  0  0  0  0  0  0
  1  2  1  0  0  0  0
  2  3  2  0  0  0  0
  2  4  1  0  0  0  0
  3  5  1  0  0  0  0
  3  6  1  0  0  0  0
  4  7  2  0  0  0  0
  5  8  1  0  0  0  0
  6  9  2  0  0  0  0
  6 10  1  0  0  0  0
  7 11  1  0  0  0  0
 10 12  1  0  0  0  0
 12 13  1  0  0  0  0
 12 14  1  0  0  0  0
 13 15  1  0  0  0  0
 14 16  1  0  0  0  0
 15 17  1  0  0  0  0
 17 18  1  0  0  0  0
 18 19  2  0  0  0  0
 18 20  1  0  0  0  0
 20 21  1  0  0  0  0
 20 22  2  0  0  0  0
 21 23  1  0  0  0  0
 21 24  2  0  0  0  0
 22 25  1  0  0  0  0
 23 26  1  0  0  0  0
 23 27  2  0  0  0  0
 24 28  1  0  0  0  0
 27 29  1  0  0  0  0
 28 30  1  0  0  0  0
  7  9  1  0  0  0  0
 16 17  1  0  0  0  0
 25 26  2  0  0  0  0
 28 29  2  0  0  0  0
  4 31  1  0  0  0  0
  8 32  1  0  0  0  0
  8 33  1  0  0  0  0
  8 34  1  0  0  0  0
  9 35  1  0  0  0  0
 10 36  1  0  0  0  0
 10 37  1  0  0  0  0
 13 38  1  0  0  0  0
 13 39  1  0  0  0  0
 14 40  1  0  0  0  0
 14 41  1  0  0  0  0
 15 42  1  0  0  0  0
 15 43  1  0  0  0  0
 16 44  1  0  0  0  0
 16 45  1  0  0  0  0
 22 46  1  0  0  0  0
 24 47  1  0  0  0  0
 26 48  1  0  0  0  0
 27 49  1  0  0  0  0
 29 50  1  0  0  0  0
 12 51  1  0  0  0  0
M  CHG  1  12   1
M  END
> <BIOSOLVEIT.HYDE_ESTIMATED_AFFINITY_LOWER_BOUNDARY [nM]>
11521696.873522

> <BIOSOLVEIT.HYDE_ESTIMATED_AFFINITY_UPPER_BOUNDARY [nM]>
1144748706.047550

> <BIOSOLVEIT.HYDE_LIGAND_EFFICIENCY range: ++, +, 0, -, -->
--

> <BIOSOLVEIT.HYDE_LIGAND_LIPOPHILIC_EFFICIENCY range: ++, +, 0, -, -->
--

> <BIOSOLVEIT.INTER_CLASH range: red, yellow, green>
green

> <BIOSOLVEIT.INTRA_CLASH range: red, yellow, green>
green

> <BIOSOLVEIT.LOGP>
3.2302

> <BIOSOLVEIT.MOLECULAR WEIGHT>
449.331

> <BIOSOLVEIT.MOLECULE_CHECKSUM>
LTUuMzY0ODg7MC4xNzg4Mjk=

> <BIOSOLVEIT.TORSION_QUALITY range: red, yellow, green, not rotatable>
yellow

> <BIOSOLVEIT.TPSA>
46.87

> <BIOSOLVEIT.SEESAR_FAVORITE>
favorite

> <smc_score>
1.0

> <QED_score>
0.583

> <distance>
0.58

> <SimilarityPheSA_1>
0.691

> <Smiles>
COc1c(Cl)cc(Cl)cc1CN1CCN(C(=O)c2cncc3ccc(F)cc23)CC1

> <Similarity_SkelSpheres>
0.734

> <Cluster No>
209.0

> <QueryID>
MAR-UCB-f313ec4d-2

> <SimilarityPheSA>
0.6914

> <Postera series>
None

> <PDB_code>
Mpro-x11813

> <Approach>
DGM_focussed_RL

> <ID>
20210618_409

> <SimilarityPheSA_2>
0.768

> <OPTIBRIUM.logD>
2.84582

> <OPTIBRIUM.BBB category>
-

> <OPTIBRIUM.logP>
2.8879

> <OPTIBRIUM.P-gp category>
yes

> <OPTIBRIUM.logS>
1.51644

> <OPTIBRIUM.HIA category>
+

> <OPTIBRIUM.PPB90 category>
high

> <OPTIBRIUM.2D6 affinity category>
medium

> <OPTIBRIUM.hERG pIC50>
5.9833

> <OPTIBRIUM.2C9 pKi>
5.75571

> <OPTIBRIUM.BBB log([brain]:[blood])>
-0.424971

> <OPTIBRIUM.logS @ pH7.4>
1.76415

$$$$
Compound 410_1_08
haSeeSAR  07122114523D 1   1.00000     0.00000     0
SeeSAR 11.0.2 hazemaj
 51 54  0  0  0  0            999 V2000
   17.3852  -19.7986   -0.5321 Cl  0  0  0  0  0  0  0  0  0  0  0  0
   16.1310  -19.0753    0.5038 C   0  0  0  0  0  0  0  0  0  0  0  0
   15.8250  -17.7250    0.3686 C   0  0  0  0  0  0  0  0  0  0  0  0
   15.4714  -19.8678    1.4374 C   0  0  0  0  0  0  0  0  0  0  0  0
   16.4772  -16.9730   -0.5442 O   0  0  0  0  0  0  0  0  0  0  0  0
   14.8439  -17.1665    1.1808 C   0  0  0  0  0  0  0  0  0  0  0  0
   14.4940  -19.2884    2.2398 C   0  0  0  0  0  0  0  0  0  0  0  0
   15.9693  -16.8612   -1.8655 C   0  0  0  0  0  0  0  0  0  0  0  0
   14.1715  -17.9403    2.1209 C   0  0  0  0  0  0  0  0  0  0  0  0
   14.4943  -15.6928    1.0468 C   0  0  0  0  0  0  0  0  0  0  0  0
   13.6438  -20.2939    3.4374 Cl  0  0  0  0  0  0  0  0  0  0  0  0
   15.1542  -14.9333    2.1183 N   0  3  2  0  0  0  0  0  0  0  0  0
   14.1488  -14.7224    3.1728 C   0  0  0  0  0  0  0  0  0  0  0  0
   15.5674  -13.6455    1.5367 C   0  0  0  0  0  0  0  0  0  0  0  0
   14.6838  -13.8718    4.3157 C   0  0  0  0  0  0  0  0  0  0  0  0
   16.2056  -12.7270    2.5684 C   0  0  0  0  0  0  0  0  0  0  0  0
   15.4338  -12.7062    3.8214 N   0  0  0  0  0  0  0  0  0  0  0  0
   15.4056  -11.5292    4.5629 C   0  0  0  0  0  0  0  0  0  0  0  0
   16.1766  -10.6097    4.2877 O   0  0  0  0  0  0  0  0  0  0  0  0
   14.4668  -11.3853    5.6613 C   0  0  0  0  0  0  0  0  0  0  0  0
   14.7817  -11.7158    6.9790 C   0  0  0  0  0  0  0  0  0  0  0  0
   13.1995  -10.8914    5.3681 C   0  0  0  0  0  0  0  0  0  0  0  0
   13.8272  -11.5478    7.9774 C   0  0  0  0  0  0  0  0  0  0  0  0
   16.0293  -12.2153    7.3480 C   0  0  0  0  0  0  0  0  0  0  0  0
   12.2960  -10.7378    6.3481 N   0  0  0  0  0  0  0  0  0  0  0  0
   12.5778  -11.0495    7.6223 C   0  0  0  0  0  0  0  0  0  0  0  0
   14.1216  -11.8722    9.2977 C   0  0  0  0  0  0  0  0  0  0  0  0
   16.3353  -12.5436    8.6646 C   0  0  0  0  0  0  0  0  0  0  0  0
   15.3709  -12.3706    9.6521 C   0  0  0  0  0  0  0  0  0  0  0  0
   17.5423  -13.0178    8.9583 F   0  0  0  0  0  0  0  0  0  0  0  0
   15.6961  -20.8379    1.5302 H   0  0  0  0  0  0  0  0  0  0  0  0
   16.5705  -16.2716   -2.4049 H   0  0  0  0  0  0  0  0  0  0  0  0
   15.9282  -17.7681   -2.2847 H   0  0  0  0  0  0  0  0  0  0  0  0
   15.0516  -16.4651   -1.8375 H   0  0  0  0  0  0  0  0  0  0  0  0
   13.4670  -17.5338    2.7026 H   0  0  0  0  0  0  0  0  0  0  0  0
   13.5035  -15.5774    1.1179 H   0  0  0  0  0  0  0  0  0  0  0  0
   14.8061  -15.3557    0.1585 H   0  0  0  0  0  0  0  0  0  0  0  0
   13.8716  -15.6120    3.5359 H   0  0  0  0  0  0  0  0  0  0  0  0
   13.3551  -14.2633    2.7737 H   0  0  0  0  0  0  0  0  0  0  0  0
   14.7621  -13.1912    1.1555 H   0  0  0  0  0  0  0  0  0  0  0  0
   16.2288  -13.8190    0.8071 H   0  0  0  0  0  0  0  0  0  0  0  0
   15.2901  -14.4317    4.8803 H   0  0  0  0  0  0  0  0  0  0  0  0
   13.9147  -13.5515    4.8689 H   0  0  0  0  0  0  0  0  0  0  0  0
   16.2469  -11.7996    2.1966 H   0  0  0  0  0  0  0  0  0  0  0  0
   17.1318  -13.0500    2.7623 H   0  0  0  0  0  0  0  0  0  0  0  0
   12.9621  -10.6508    4.4269 H   0  0  0  0  0  0  0  0  0  0  0  0
   16.7273  -12.3420    6.6432 H   0  0  0  0  0  0  0  0  0  0  0  0
   11.8797  -10.9218    8.3269 H   0  0  0  0  0  0  0  0  0  0  0  0
   13.4242  -11.7452   10.0029 H   0  0  0  0  0  0  0  0  0  0  0  0
   15.5731  -12.6015   10.6039 H   0  0  0  0  0  0  0  0  0  0  0  0
   15.9440  -15.4328    2.4743 H   0  0  0  0  0  0  0  0  0  0  0  0
  1  2  1  0  0  0  0
  2  3  2  0  0  0  0
  2  4  1  0  0  0  0
  3  5  1  0  0  0  0
  3  6  1  0  0  0  0
  4  7  2  0  0  0  0
  5  8  1  0  0  0  0
  6  9  2  0  0  0  0
  6 10  1  0  0  0  0
  7 11  1  0  0  0  0
 10 12  1  0  0  0  0
 12 13  1  0  0  0  0
 12 14  1  0  0  0  0
 13 15  1  0  0  0  0
 14 16  1  0  0  0  0
 15 17  1  0  0  0  0
 17 18  1  0  0  0  0
 18 19  2  0  0  0  0
 18 20  1  0  0  0  0
 20 21  1  0  0  0  0
 20 22  2  0  0  0  0
 21 23  1  0  0  0  0
 21 24  2  0  0  0  0
 22 25  1  0  0  0  0
 23 26  1  0  0  0  0
 23 27  2  0  0  0  0
 24 28  1  0  0  0  0
 27 29  1  0  0  0  0
 28 30  1  0  0  0  0
  7  9  1  0  0  0  0
 16 17  1  0  0  0  0
 25 26  2  0  0  0  0
 28 29  2  0  0  0  0
  4 31  1  0  0  0  0
  8 32  1  0  0  0  0
  8 33  1  0  0  0  0
  8 34  1  0  0  0  0
  9 35  1  0  0  0  0
 10 36  1  0  0  0  0
 10 37  1  0  0  0  0
 13 38  1  0  0  0  0
 13 39  1  0  0  0  0
 14 40  1  0  0  0  0
 14 41  1  0  0  0  0
 15 42  1  0  0  0  0
 15 43  1  0  0  0  0
 16 44  1  0  0  0  0
 16 45  1  0  0  0  0
 22 46  1  0  0  0  0
 24 47  1  0  0  0  0
 26 48  1  0  0  0  0
 27 49  1  0  0  0  0
 29 50  1  0  0  0  0
 12 51  1  0  0  0  0
M  CHG  1  12   1
M  END
> <BIOSOLVEIT.HYDE_ESTIMATED_AFFINITY_LOWER_BOUNDARY [nM]>
244026612.659581

> <BIOSOLVEIT.HYDE_ESTIMATED_AFFINITY_UPPER_BOUNDARY [nM]>
24245486767.248241

> <BIOSOLVEIT.HYDE_LIGAND_EFFICIENCY range: ++, +, 0, -, -->
--

> <BIOSOLVEIT.HYDE_LIGAND_LIPOPHILIC_EFFICIENCY range: ++, +, 0, -, -->
--

> <BIOSOLVEIT.INTER_CLASH range: red, yellow, green>
green

> <BIOSOLVEIT.INTRA_CLASH range: red, yellow, green>
green

> <BIOSOLVEIT.LOGP>
3.2302

> <BIOSOLVEIT.MOLECULAR WEIGHT>
449.331

> <BIOSOLVEIT.MOLECULE_CHECKSUM>
Mi4yMDM0OTsw

> <BIOSOLVEIT.TORSION_QUALITY range: red, yellow, green, not rotatable>
green

> <BIOSOLVEIT.TPSA>
46.87

> <BIOSOLVEIT.SEESAR_FAVORITE>
favorite

> <smc_score>
1.0

> <QED_score>
0.583

> <distance>
0.58

> <SimilarityPheSA_1>
0.691

> <Smiles>
COc1c(Cl)cc(Cl)cc1CN1CCN(C(=O)c2cncc3ccc(F)cc23)CC1

> <Similarity_SkelSpheres>
0.734

> <Cluster No>
209.0

> <QueryID>
MAR-UCB-f313ec4d-2

> <SimilarityPheSA>
0.6914

> <Postera series>
None

> <PDB_code>
Mpro-x11813

> <Approach>
DGM_focussed_RL

> <ID>
20210618_409

> <SimilarityPheSA_2>
0.768

> <OPTIBRIUM.logD>
2.84582

> <OPTIBRIUM.BBB category>
-

> <OPTIBRIUM.logP>
2.8879

> <OPTIBRIUM.P-gp category>
yes

> <OPTIBRIUM.logS>
1.51644

> <OPTIBRIUM.HIA category>
+

> <OPTIBRIUM.PPB90 category>
high

> <OPTIBRIUM.2D6 affinity category>
medium

> <OPTIBRIUM.hERG pIC50>
5.9833

> <OPTIBRIUM.2C9 pKi>
5.75571

> <OPTIBRIUM.BBB log([brain]:[blood])>
-0.424971

> <OPTIBRIUM.logS @ pH7.4>
1.76415

$$$$
Compound 411_1_01
haSeeSAR  07122114523D 1   1.00000     0.00000     0
SeeSAR 11.0.2 hazemaj
 51 54  0  0  0  0            999 V2000
   12.5939  -17.6434    3.1393 Cl  0  0  0  0  0  0  0  0  0  0  0  0
   13.8763  -18.0934    1.9893 C   0  0  0  0  0  0  0  0  0  0  0  0
   14.4186  -17.1328    1.1421 C   0  0  0  0  0  0  0  0  0  0  0  0
   14.3266  -19.4090    1.9476 C   0  0  0  0  0  0  0  0  0  0  0  0
   15.4208  -17.4837    0.2433 C   0  0  0  0  0  0  0  0  0  0  0  0
   13.9276  -15.6949    1.1860 C   0  0  0  0  0  0  0  0  0  0  0  0
   15.3286  -19.7599    1.0485 C   0  0  0  0  0  0  0  0  0  0  0  0
   15.8705  -18.7993    0.2020 C   0  0  0  0  0  0  0  0  0  0  0  0
   14.7416  -14.9281    2.1400 N   0  3  2  0  0  0  0  0  0  0  0  0
   17.1529  -19.2538   -0.9461 Cl  0  0  0  0  0  0  0  0  0  0  0  0
   13.9366  -14.7786    3.3634 C   0  0  0  0  0  0  0  0  0  0  0  0
   14.9937  -13.6139    1.5263 C   0  0  0  0  0  0  0  0  0  0  0  0
   14.6373  -13.9272    4.4123 C   0  0  0  0  0  0  0  0  0  0  0  0
   15.7731  -12.6885    2.4490 C   0  0  0  0  0  0  0  0  0  0  0  0
   15.2409  -12.7226    3.8207 N   0  0  0  0  0  0  0  0  0  0  0  0
   15.3031  -11.5614    4.5847 C   0  0  0  0  0  0  0  0  0  0  0  0
   16.1188  -10.6831    4.3043 O   0  0  0  0  0  0  0  0  0  0  0  0
   14.4060  -11.3858    5.7128 C   0  0  0  0  0  0  0  0  0  0  0  0
   14.7602  -11.7035    7.0238 C   0  0  0  0  0  0  0  0  0  0  0  0
   13.1369  -10.8764    5.4603 C   0  0  0  0  0  0  0  0  0  0  0  0
   13.8434  -11.5062    8.0512 C   0  0  0  0  0  0  0  0  0  0  0  0
   16.0131  -12.2173    7.3507 C   0  0  0  0  0  0  0  0  0  0  0  0
   12.2685  -10.6946    6.4660 N   0  0  0  0  0  0  0  0  0  0  0  0
   12.5897  -10.9935    7.7338 C   0  0  0  0  0  0  0  0  0  0  0  0
   14.1652  -11.8137    9.3696 C   0  0  0  0  0  0  0  0  0  0  0  0
   16.3511  -12.5288    8.6633 C   0  0  0  0  0  0  0  0  0  0  0  0
   15.4211  -12.3257    9.6776 C   0  0  0  0  0  0  0  0  0  0  0  0
   17.5794  -13.0234    8.9234 O   0  0  0  0  0  0  0  0  0  0  0  0
   18.5055  -12.2610    9.6833 C   0  0  0  0  0  0  0  0  0  0  0  0
   13.9335  -20.0963    2.5585 H   0  0  0  0  0  0  0  0  0  0  0  0
   15.8143  -16.7965   -0.3674 H   0  0  0  0  0  0  0  0  0  0  0  0
   12.9705  -15.6783    1.4756 H   0  0  0  0  0  0  0  0  0  0  0  0
   14.0077  -15.2874    0.2763 H   0  0  0  0  0  0  0  0  0  0  0  0
   15.6590  -20.7029    1.0110 H   0  0  0  0  0  0  0  0  0  0  0  0
   13.7635  -15.6854    3.7478 H   0  0  0  0  0  0  0  0  0  0  0  0
   13.0670  -14.3457    3.1257 H   0  0  0  0  0  0  0  0  0  0  0  0
   14.1163  -13.1868    1.3082 H   0  0  0  0  0  0  0  0  0  0  0  0
   15.5181  -13.7465    0.6853 H   0  0  0  0  0  0  0  0  0  0  0  0
   15.3565  -14.4716    4.8440 H   0  0  0  0  0  0  0  0  0  0  0  0
   13.9696  -13.6494    5.1030 H   0  0  0  0  0  0  0  0  0  0  0  0
   15.7115  -11.7536    2.0995 H   0  0  0  0  0  0  0  0  0  0  0  0
   16.7308  -12.9761    2.4646 H   0  0  0  0  0  0  0  0  0  0  0  0
   12.8706  -10.6447    4.5247 H   0  0  0  0  0  0  0  0  0  0  0  0
   16.6848  -12.3655    6.6250 H   0  0  0  0  0  0  0  0  0  0  0  0
   11.9189  -10.8457    8.4605 H   0  0  0  0  0  0  0  0  0  0  0  0
   13.4935  -11.6664   10.0956 H   0  0  0  0  0  0  0  0  0  0  0  0
   15.6546  -12.5469   10.6245 H   0  0  0  0  0  0  0  0  0  0  0  0
   19.3588  -12.7734    9.7802 H   0  0  0  0  0  0  0  0  0  0  0  0
   18.6875  -11.3958    9.2162 H   0  0  0  0  0  0  0  0  0  0  0  0
   18.1225  -12.0771   10.5885 H   0  0  0  0  0  0  0  0  0  0  0  0
   15.6011  -15.4007    2.3349 H   0  0  0  0  0  0  0  0  0  0  0  0
  1  2  1  0  0  0  0
  2  3  2  0  0  0  0
  2  4  1  0  0  0  0
  3  5  1  0  0  0  0
  3  6  1  0  0  0  0
  4  7  2  0  0  0  0
  5  8  2  0  0  0  0
  6  9  1  0  0  0  0
  8 10  1  0  0  0  0
  9 11  1  0  0  0  0
  9 12  1  0  0  0  0
 11 13  1  0  0  0  0
 12 14  1  0  0  0  0
 13 15  1  0  0  0  0
 15 16  1  0  0  0  0
 16 17  2  0  0  0  0
 16 18  1  0  0  0  0
 18 19  1  0  0  0  0
 18 20  2  0  0  0  0
 19 21  1  0  0  0  0
 19 22  2  0  0  0  0
 20 23  1  0  0  0  0
 21 24  1  0  0  0  0
 21 25  2  0  0  0  0
 22 26  1  0  0  0  0
 25 27  1  0  0  0  0
 26 28  1  0  0  0  0
 28 29  1  0  0  0  0
  7  8  1  0  0  0  0
 14 15  1  0  0  0  0
 23 24  2  0  0  0  0
 26 27  2  0  0  0  0
  4 30  1  0  0  0  0
  5 31  1  0  0  0  0
  6 32  1  0  0  0  0
  6 33  1  0  0  0  0
  7 34  1  0  0  0  0
 11 35  1  0  0  0  0
 11 36  1  0  0  0  0
 12 37  1  0  0  0  0
 12 38  1  0  0  0  0
 13 39  1  0  0  0  0
 13 40  1  0  0  0  0
 14 41  1  0  0  0  0
 14 42  1  0  0  0  0
 20 43  1  0  0  0  0
 22 44  1  0  0  0  0
 24 45  1  0  0  0  0
 25 46  1  0  0  0  0
 27 47  1  0  0  0  0
 29 48  1  0  0  0  0
 29 49  1  0  0  0  0
 29 50  1  0  0  0  0
  9 51  1  0  0  0  0
M  CHG  1   9   1
M  END
> <BIOSOLVEIT.HYDE_ESTIMATED_AFFINITY_LOWER_BOUNDARY [nM]>
17400990.193617

> <BIOSOLVEIT.HYDE_ESTIMATED_AFFINITY_UPPER_BOUNDARY [nM]>
1728891258.532166

> <BIOSOLVEIT.HYDE_LIGAND_EFFICIENCY range: ++, +, 0, -, -->
--

> <BIOSOLVEIT.HYDE_LIGAND_LIPOPHILIC_EFFICIENCY range: ++, +, 0, -, -->
--

> <BIOSOLVEIT.INTER_CLASH range: red, yellow, green>
green

> <BIOSOLVEIT.INTRA_CLASH range: red, yellow, green>
green

> <BIOSOLVEIT.LOGP>
3.0911

> <BIOSOLVEIT.MOLECULAR WEIGHT>
431.341

> <BIOSOLVEIT.MOLECULE_CHECKSUM>
LTQuMzQyODI7MC4xNDk3NTI=

> <BIOSOLVEIT.TORSION_QUALITY range: red, yellow, green, not rotatable>
yellow

> <BIOSOLVEIT.TPSA>
46.87

> <BIOSOLVEIT.SEESAR_FAVORITE>
favorite

> <smc_score>
0.938

> <QED_score>
0.611

> <distance>
0.545

> <SimilarityPheSA_1>
0.652

> <Smiles>
COc1ccc2cncc(C(=O)N3CCN(Cc4cc(Cl)ccc4Cl)CC3)c2c1

> <Similarity_SkelSpheres>
0.76

> <Cluster No>
209.0

> <QueryID>
MAR-UCB-f313ec4d-2

> <SimilarityPheSA>
0.6516

> <Postera series>
None

> <PDB_code>
Mpro-x11813

> <Approach>
DGM_focussed_RL

> <ID>
20210618_410

> <SimilarityPheSA_2>
0.774

> <OPTIBRIUM.logD>
2.61905

> <OPTIBRIUM.BBB category>
-

> <OPTIBRIUM.logP>
2.79549

> <OPTIBRIUM.P-gp category>
yes

> <OPTIBRIUM.logS>
1.96702

> <OPTIBRIUM.HIA category>
+

> <OPTIBRIUM.PPB90 category>
high

> <OPTIBRIUM.2D6 affinity category>
medium

> <OPTIBRIUM.hERG pIC50>
5.79782

> <OPTIBRIUM.2C9 pKi>
5.80411

> <OPTIBRIUM.BBB log([brain]:[blood])>
-0.451557

> <OPTIBRIUM.logS @ pH7.4>
1.73621

$$$$
Compound 411_1_03
haSeeSAR  07122114523D 1   1.00000     0.00000     0
SeeSAR 11.0.2 hazemaj
 51 54  0  0  0  0            999 V2000
   16.3573  -15.8321   -1.0661 Cl  0  0  0  0  0  0  0  0  0  0  0  0
   15.7676  -17.1957   -0.0850 C   0  0  0  0  0  0  0  0  0  0  0  0
   14.7470  -16.9972    0.8388 C   0  0  0  0  0  0  0  0  0  0  0  0
   16.3363  -18.4543   -0.2517 C   0  0  0  0  0  0  0  0  0  0  0  0
   14.2855  -18.0623    1.6056 C   0  0  0  0  0  0  0  0  0  0  0  0
   14.1246  -15.6226    1.0224 C   0  0  0  0  0  0  0  0  0  0  0  0
   15.8749  -19.5194    0.5156 C   0  0  0  0  0  0  0  0  0  0  0  0
   14.8545  -19.3205    1.4385 C   0  0  0  0  0  0  0  0  0  0  0  0
   14.9010  -14.8616    2.0117 N   0  3  2  0  0  0  0  0  0  0  0  0
   14.2678  -20.6869    2.4171 Cl  0  0  0  0  0  0  0  0  0  0  0  0
   14.0547  -14.7318    3.2093 C   0  0  0  0  0  0  0  0  0  0  0  0
   15.1639  -13.5385    1.4221 C   0  0  0  0  0  0  0  0  0  0  0  0
   14.7139  -13.8882    4.2909 C   0  0  0  0  0  0  0  0  0  0  0  0
   15.9056  -12.6189    2.3808 C   0  0  0  0  0  0  0  0  0  0  0  0
   15.3283  -12.6727    3.7335 N   0  0  0  0  0  0  0  0  0  0  0  0
   15.3568  -11.5202    4.5126 C   0  0  0  0  0  0  0  0  0  0  0  0
   16.1572  -10.6216    4.2533 O   0  0  0  0  0  0  0  0  0  0  0  0
   14.4425  -11.3774    5.6315 C   0  0  0  0  0  0  0  0  0  0  0  0
   14.7835  -11.7146    6.9411 C   0  0  0  0  0  0  0  0  0  0  0  0
   13.1699  -10.8806    5.3712 C   0  0  0  0  0  0  0  0  0  0  0  0
   13.8505  -11.5488    7.9593 C   0  0  0  0  0  0  0  0  0  0  0  0
   16.0388  -12.2176    7.2755 C   0  0  0  0  0  0  0  0  0  0  0  0
   12.2858  -10.7291    6.3682 N   0  0  0  0  0  0  0  0  0  0  0  0
   12.5943  -11.0471    7.6345 C   0  0  0  0  0  0  0  0  0  0  0  0
   14.1590  -11.8762    9.2762 C   0  0  0  0  0  0  0  0  0  0  0  0
   16.3636  -12.5488    8.5866 C   0  0  0  0  0  0  0  0  0  0  0  0
   15.4174  -12.3770    9.5917 C   0  0  0  0  0  0  0  0  0  0  0  0
   17.5949  -13.0316    8.8542 O   0  0  0  0  0  0  0  0  0  0  0  0
   18.5329  -13.2066    7.8026 C   0  0  0  0  0  0  0  0  0  0  0  0
   17.0701  -18.5923   -0.9169 H   0  0  0  0  0  0  0  0  0  0  0  0
   13.5515  -17.9247    2.2705 H   0  0  0  0  0  0  0  0  0  0  0  0
   13.1829  -15.7232    1.3434 H   0  0  0  0  0  0  0  0  0  0  0  0
   14.1289  -15.1355    0.1491 H   0  0  0  0  0  0  0  0  0  0  0  0
   16.2773  -20.4279    0.4030 H   0  0  0  0  0  0  0  0  0  0  0  0
   13.8753  -15.6443    3.5772 H   0  0  0  0  0  0  0  0  0  0  0  0
   13.1904  -14.3021    2.9478 H   0  0  0  0  0  0  0  0  0  0  0  0
   14.2913  -13.1147    1.1797 H   0  0  0  0  0  0  0  0  0  0  0  0
   15.7170  -13.6577    0.5975 H   0  0  0  0  0  0  0  0  0  0  0  0
   15.4223  -14.4328    4.7399 H   0  0  0  0  0  0  0  0  0  0  0  0
   14.0217  -13.6230    4.9620 H   0  0  0  0  0  0  0  0  0  0  0  0
   15.8490  -11.6803    2.0403 H   0  0  0  0  0  0  0  0  0  0  0  0
   16.8643  -12.9002    2.4250 H   0  0  0  0  0  0  0  0  0  0  0  0
   12.9130  -10.6352    4.4364 H   0  0  0  0  0  0  0  0  0  0  0  0
   16.7222  -12.3433    6.5563 H   0  0  0  0  0  0  0  0  0  0  0  0
   11.9119  -10.9218    8.3547 H   0  0  0  0  0  0  0  0  0  0  0  0
   13.4756  -11.7515    9.9956 H   0  0  0  0  0  0  0  0  0  0  0  0
   15.6413  -12.6125   10.5374 H   0  0  0  0  0  0  0  0  0  0  0  0
   19.3870  -13.5701    8.1748 H   0  0  0  0  0  0  0  0  0  0  0  0
   18.1633  -13.8471    7.1295 H   0  0  0  0  0  0  0  0  0  0  0  0
   18.7090  -12.3258    7.3630 H   0  0  0  0  0  0  0  0  0  0  0  0
   15.7568  -15.3306    2.2298 H   0  0  0  0  0  0  0  0  0  0  0  0
  1  2  1  0  0  0  0
  2  3  2  0  0  0  0
  2  4  1  0  0  0  0
  3  5  1  0  0  0  0
  3  6  1  0  0  0  0
  4  7  2  0  0  0  0
  5  8  2  0  0  0  0
  6  9  1  0  0  0  0
  8 10  1  0  0  0  0
  9 11  1  0  0  0  0
  9 12  1  0  0  0  0
 11 13  1  0  0  0  0
 12 14  1  0  0  0  0
 13 15  1  0  0  0  0
 15 16  1  0  0  0  0
 16 17  2  0  0  0  0
 16 18  1  0  0  0  0
 18 19  1  0  0  0  0
 18 20  2  0  0  0  0
 19 21  1  0  0  0  0
 19 22  2  0  0  0  0
 20 23  1  0  0  0  0
 21 24  1  0  0  0  0
 21 25  2  0  0  0  0
 22 26  1  0  0  0  0
 25 27  1  0  0  0  0
 26 28  1  0  0  0  0
 28 29  1  0  0  0  0
  7  8  1  0  0  0  0
 14 15  1  0  0  0  0
 23 24  2  0  0  0  0
 26 27  2  0  0  0  0
  4 30  1  0  0  0  0
  5 31  1  0  0  0  0
  6 32  1  0  0  0  0
  6 33  1  0  0  0  0
  7 34  1  0  0  0  0
 11 35  1  0  0  0  0
 11 36  1  0  0  0  0
 12 37  1  0  0  0  0
 12 38  1  0  0  0  0
 13 39  1  0  0  0  0
 13 40  1  0  0  0  0
 14 41  1  0  0  0  0
 14 42  1  0  0  0  0
 20 43  1  0  0  0  0
 22 44  1  0  0  0  0
 24 45  1  0  0  0  0
 25 46  1  0  0  0  0
 27 47  1  0  0  0  0
 29 48  1  0  0  0  0
 29 49  1  0  0  0  0
 29 50  1  0  0  0  0
  9 51  1  0  0  0  0
M  CHG  1   9   1
M  END
> <BIOSOLVEIT.HYDE_ESTIMATED_AFFINITY_LOWER_BOUNDARY [nM]>
16053710.055447

> <BIOSOLVEIT.HYDE_ESTIMATED_AFFINITY_UPPER_BOUNDARY [nM]>
1595031011.054364

> <BIOSOLVEIT.HYDE_LIGAND_EFFICIENCY range: ++, +, 0, -, -->
--

> <BIOSOLVEIT.HYDE_LIGAND_LIPOPHILIC_EFFICIENCY range: ++, +, 0, -, -->
--

> <BIOSOLVEIT.INTER_CLASH range: red, yellow, green>
green

> <BIOSOLVEIT.INTRA_CLASH range: red, yellow, green>
green

> <BIOSOLVEIT.LOGP>
3.0911

> <BIOSOLVEIT.MOLECULAR WEIGHT>
431.341

> <BIOSOLVEIT.MOLECULE_CHECKSUM>
LTQuNTQyNTk7MC4xNTY2NDE=

> <BIOSOLVEIT.TORSION_QUALITY range: red, yellow, green, not rotatable>
green

> <BIOSOLVEIT.TPSA>
46.87

> <BIOSOLVEIT.SEESAR_FAVORITE>
favorite

> <smc_score>
0.938

> <QED_score>
0.611

> <distance>
0.545

> <SimilarityPheSA_1>
0.652

> <Smiles>
COc1ccc2cncc(C(=O)N3CCN(Cc4cc(Cl)ccc4Cl)CC3)c2c1

> <Similarity_SkelSpheres>
0.76

> <Cluster No>
209.0

> <QueryID>
MAR-UCB-f313ec4d-2

> <SimilarityPheSA>
0.6516

> <Postera series>
None

> <PDB_code>
Mpro-x11813

> <Approach>
DGM_focussed_RL

> <ID>
20210618_410

> <SimilarityPheSA_2>
0.774

> <OPTIBRIUM.logD>
2.61905

> <OPTIBRIUM.BBB category>
-

> <OPTIBRIUM.logP>
2.79549

> <OPTIBRIUM.P-gp category>
yes

> <OPTIBRIUM.logS>
1.96702

> <OPTIBRIUM.HIA category>
+

> <OPTIBRIUM.PPB90 category>
high

> <OPTIBRIUM.2D6 affinity category>
medium

> <OPTIBRIUM.hERG pIC50>
5.79782

> <OPTIBRIUM.2C9 pKi>
5.80411

> <OPTIBRIUM.BBB log([brain]:[blood])>
-0.451557

> <OPTIBRIUM.logS @ pH7.4>
1.73621

$$$$
Compound 411_1_04
haSeeSAR  07122114523D 1   1.00000     0.00000     0
SeeSAR 11.0.2 hazemaj
 51 54  0  0  0  0            999 V2000
   16.0214  -15.0644   -1.5487 Cl  0  0  0  0  0  0  0  0  0  0  0  0
   15.9005  -16.6193   -0.6901 C   0  0  0  0  0  0  0  0  0  0  0  0
   15.0570  -16.7426    0.4090 C   0  0  0  0  0  0  0  0  0  0  0  0
   16.6553  -17.7027   -1.1279 C   0  0  0  0  0  0  0  0  0  0  0  0
   14.9618  -17.9574    1.0803 C   0  0  0  0  0  0  0  0  0  0  0  0
   14.2319  -15.5597    0.8890 C   0  0  0  0  0  0  0  0  0  0  0  0
   16.5602  -18.9174   -0.4561 C   0  0  0  0  0  0  0  0  0  0  0  0
   15.7168  -19.0403    0.6421 C   0  0  0  0  0  0  0  0  0  0  0  0
   14.9948  -14.8058    1.8941 N   0  3  2  0  0  0  0  0  0  0  0  0
   15.5988  -20.5970    1.4975 Cl  0  0  0  0  0  0  0  0  0  0  0  0
   14.1395  -14.7002    3.0875 C   0  0  0  0  0  0  0  0  0  0  0  0
   15.2500  -13.4724    1.3246 C   0  0  0  0  0  0  0  0  0  0  0  0
   14.7840  -13.8659    4.1851 C   0  0  0  0  0  0  0  0  0  0  0  0
   15.9771  -12.5596    2.3010 C   0  0  0  0  0  0  0  0  0  0  0  0
   15.3913  -12.6374    3.6490 N   0  0  0  0  0  0  0  0  0  0  0  0
   15.4044  -11.4958    4.4441 C   0  0  0  0  0  0  0  0  0  0  0  0
   16.2011  -10.5883    4.2050 O   0  0  0  0  0  0  0  0  0  0  0  0
   14.4783  -11.3746    5.5558 C   0  0  0  0  0  0  0  0  0  0  0  0
   14.8115  -11.7198    6.8653 C   0  0  0  0  0  0  0  0  0  0  0  0
   13.2021  -10.8910    5.2884 C   0  0  0  0  0  0  0  0  0  0  0  0
   13.8673  -11.5750    7.8765 C   0  0  0  0  0  0  0  0  0  0  0  0
   16.0699  -12.2106    7.2065 C   0  0  0  0  0  0  0  0  0  0  0  0
   12.3073  -10.7595    6.2787 N   0  0  0  0  0  0  0  0  0  0  0  0
   12.6080  -11.0856    7.5448 C   0  0  0  0  0  0  0  0  0  0  0  0
   14.1679  -11.9109    9.1930 C   0  0  0  0  0  0  0  0  0  0  0  0
   16.3867  -12.5500    8.5175 C   0  0  0  0  0  0  0  0  0  0  0  0
   15.4295  -12.3991    9.5155 C   0  0  0  0  0  0  0  0  0  0  0  0
   17.6214  -13.0202    8.7919 O   0  0  0  0  0  0  0  0  0  0  0  0
   18.5715  -13.1727    7.7476 C   0  0  0  0  0  0  0  0  0  0  0  0
   17.2606  -17.6093   -1.9184 H   0  0  0  0  0  0  0  0  0  0  0  0
   14.3563  -18.0511    1.8706 H   0  0  0  0  0  0  0  0  0  0  0  0
   13.3804  -15.8904    1.2959 H   0  0  0  0  0  0  0  0  0  0  0  0
   14.0215  -14.9637    0.1141 H   0  0  0  0  0  0  0  0  0  0  0  0
   17.0987  -19.7020   -0.7634 H   0  0  0  0  0  0  0  0  0  0  0  0
   13.9658  -15.6191    3.4416 H   0  0  0  0  0  0  0  0  0  0  0  0
   13.2732  -14.2745    2.8261 H   0  0  0  0  0  0  0  0  0  0  0  0
   14.3751  -13.0529    1.0822 H   0  0  0  0  0  0  0  0  0  0  0  0
   15.8095  -13.5751    0.5022 H   0  0  0  0  0  0  0  0  0  0  0  0
   15.4942  -14.4105    4.6313 H   0  0  0  0  0  0  0  0  0  0  0  0
   14.0850  -13.6162    4.8552 H   0  0  0  0  0  0  0  0  0  0  0  0
   15.9144  -11.6170    1.9732 H   0  0  0  0  0  0  0  0  0  0  0  0
   16.9378  -12.8331    2.3478 H   0  0  0  0  0  0  0  0  0  0  0  0
   12.9506  -10.6400    4.3537 H   0  0  0  0  0  0  0  0  0  0  0  0
   16.7612  -12.3212    6.4925 H   0  0  0  0  0  0  0  0  0  0  0  0
   11.9177  -10.9754    8.2598 H   0  0  0  0  0  0  0  0  0  0  0  0
   13.4766  -11.8013    9.9072 H   0  0  0  0  0  0  0  0  0  0  0  0
   15.6477  -12.6407   10.4609 H   0  0  0  0  0  0  0  0  0  0  0  0
   19.4264  -13.5293    8.1242 H   0  0  0  0  0  0  0  0  0  0  0  0
   18.2163  -13.8107    7.0644 H   0  0  0  0  0  0  0  0  0  0  0  0
   18.7407  -12.2853    7.3187 H   0  0  0  0  0  0  0  0  0  0  0  0
   15.8533  -15.2703    2.1114 H   0  0  0  0  0  0  0  0  0  0  0  0
  1  2  1  0  0  0  0
  2  3  2  0  0  0  0
  2  4  1  0  0  0  0
  3  5  1  0  0  0  0
  3  6  1  0  0  0  0
  4  7  2  0  0  0  0
  5  8  2  0  0  0  0
  6  9  1  0  0  0  0
  8 10  1  0  0  0  0
  9 11  1  0  0  0  0
  9 12  1  0  0  0  0
 11 13  1  0  0  0  0
 12 14  1  0  0  0  0
 13 15  1  0  0  0  0
 15 16  1  0  0  0  0
 16 17  2  0  0  0  0
 16 18  1  0  0  0  0
 18 19  1  0  0  0  0
 18 20  2  0  0  0  0
 19 21  1  0  0  0  0
 19 22  2  0  0  0  0
 20 23  1  0  0  0  0
 21 24  1  0  0  0  0
 21 25  2  0  0  0  0
 22 26  1  0  0  0  0
 25 27  1  0  0  0  0
 26 28  1  0  0  0  0
 28 29  1  0  0  0  0
  7  8  1  0  0  0  0
 14 15  1  0  0  0  0
 23 24  2  0  0  0  0
 26 27  2  0  0  0  0
  4 30  1  0  0  0  0
  5 31  1  0  0  0  0
  6 32  1  0  0  0  0
  6 33  1  0  0  0  0
  7 34  1  0  0  0  0
 11 35  1  0  0  0  0
 11 36  1  0  0  0  0
 12 37  1  0  0  0  0
 12 38  1  0  0  0  0
 13 39  1  0  0  0  0
 13 40  1  0  0  0  0
 14 41  1  0  0  0  0
 14 42  1  0  0  0  0
 20 43  1  0  0  0  0
 22 44  1  0  0  0  0
 24 45  1  0  0  0  0
 25 46  1  0  0  0  0
 27 47  1  0  0  0  0
 29 48  1  0  0  0  0
 29 49  1  0  0  0  0
 29 50  1  0  0  0  0
  9 51  1  0  0  0  0
M  CHG  1   9   1
M  END
> <BIOSOLVEIT.HYDE_ESTIMATED_AFFINITY_LOWER_BOUNDARY [nM]>
2943660.858421

> <BIOSOLVEIT.HYDE_ESTIMATED_AFFINITY_UPPER_BOUNDARY [nM]>
292470110.584504

> <BIOSOLVEIT.HYDE_LIGAND_EFFICIENCY range: ++, +, 0, -, -->
--

> <BIOSOLVEIT.HYDE_LIGAND_LIPOPHILIC_EFFICIENCY range: ++, +, 0, -, -->
--

> <BIOSOLVEIT.INTER_CLASH range: red, yellow, green>
green

> <BIOSOLVEIT.INTRA_CLASH range: red, yellow, green>
green

> <BIOSOLVEIT.LOGP>
3.0911

> <BIOSOLVEIT.MOLECULAR WEIGHT>
431.341

> <BIOSOLVEIT.MOLECULE_CHECKSUM>
LTguNzQ3NjE7MC4zMDE2NDI=

> <BIOSOLVEIT.TORSION_QUALITY range: red, yellow, green, not rotatable>
green

> <BIOSOLVEIT.TPSA>
46.87

> <BIOSOLVEIT.SEESAR_FAVORITE>
favorite

> <smc_score>
0.938

> <QED_score>
0.611

> <distance>
0.545

> <SimilarityPheSA_1>
0.652

> <Smiles>
COc1ccc2cncc(C(=O)N3CCN(Cc4cc(Cl)ccc4Cl)CC3)c2c1

> <Similarity_SkelSpheres>
0.76

> <Cluster No>
209.0

> <QueryID>
MAR-UCB-f313ec4d-2

> <SimilarityPheSA>
0.6516

> <Postera series>
None

> <PDB_code>
Mpro-x11813

> <Approach>
DGM_focussed_RL

> <ID>
20210618_410

> <SimilarityPheSA_2>
0.774

> <OPTIBRIUM.logD>
2.61905

> <OPTIBRIUM.BBB category>
-

> <OPTIBRIUM.logP>
2.79549

> <OPTIBRIUM.P-gp category>
yes

> <OPTIBRIUM.logS>
1.96702

> <OPTIBRIUM.HIA category>
+

> <OPTIBRIUM.PPB90 category>
high

> <OPTIBRIUM.2D6 affinity category>
medium

> <OPTIBRIUM.hERG pIC50>
5.79782

> <OPTIBRIUM.2C9 pKi>
5.80411

> <OPTIBRIUM.BBB log([brain]:[blood])>
-0.451557

> <OPTIBRIUM.logS @ pH7.4>
1.73621

$$$$
Compound 411_1_05
haSeeSAR  07122114523D 1   1.00000     0.00000     0
SeeSAR 11.0.2 hazemaj
 51 54  0  0  0  0            999 V2000
   13.0915  -17.8959    3.5517 Cl  0  0  0  0  0  0  0  0  0  0  0  0
   14.2483  -18.2434    2.2439 C   0  0  0  0  0  0  0  0  0  0  0  0
   14.5800  -17.2510    1.3274 C   0  0  0  0  0  0  0  0  0  0  0  0
   14.8127  -19.5113    2.1492 C   0  0  0  0  0  0  0  0  0  0  0  0
   15.4840  -17.5218    0.3053 C   0  0  0  0  0  0  0  0  0  0  0  0
   13.9638  -15.8652    1.4291 C   0  0  0  0  0  0  0  0  0  0  0  0
   15.7166  -19.7820    1.1267 C   0  0  0  0  0  0  0  0  0  0  0  0
   16.0479  -18.7897    0.2111 C   0  0  0  0  0  0  0  0  0  0  0  0
   14.7922  -15.0237    2.3044 N   0  3  2  0  0  0  0  0  0  0  0  0
   17.2054  -19.1415   -1.0949 Cl  0  0  0  0  0  0  0  0  0  0  0  0
   14.0731  -14.9012    3.5831 C   0  0  0  0  0  0  0  0  0  0  0  0
   14.9061  -13.7097    1.6504 C   0  0  0  0  0  0  0  0  0  0  0  0
   14.7901  -13.9809    4.5603 C   0  0  0  0  0  0  0  0  0  0  0  0
   15.6869  -12.7131    2.4943 C   0  0  0  0  0  0  0  0  0  0  0  0
   15.2629  -12.7519    3.9032 N   0  0  0  0  0  0  0  0  0  0  0  0
   15.3020  -11.5722    4.6398 C   0  0  0  0  0  0  0  0  0  0  0  0
   16.1000  -10.6846    4.3385 O   0  0  0  0  0  0  0  0  0  0  0  0
   14.4016  -11.3880    5.7639 C   0  0  0  0  0  0  0  0  0  0  0  0
   14.7474  -11.7079    7.0766 C   0  0  0  0  0  0  0  0  0  0  0  0
   13.1381  -10.8679    5.5056 C   0  0  0  0  0  0  0  0  0  0  0  0
   13.8279  -11.5022    8.0999 C   0  0  0  0  0  0  0  0  0  0  0  0
   15.9944  -12.2324    7.4092 C   0  0  0  0  0  0  0  0  0  0  0  0
   12.2669  -10.6779    6.5074 N   0  0  0  0  0  0  0  0  0  0  0  0
   12.5801  -10.9788    7.7769 C   0  0  0  0  0  0  0  0  0  0  0  0
   14.1414  -11.8115    9.4198 C   0  0  0  0  0  0  0  0  0  0  0  0
   16.3240  -12.5460    8.7235 C   0  0  0  0  0  0  0  0  0  0  0  0
   15.3914  -12.3342    9.7336 C   0  0  0  0  0  0  0  0  0  0  0  0
   17.5468  -13.0510    8.9892 O   0  0  0  0  0  0  0  0  0  0  0  0
   18.4697  -13.2696    7.9325 C   0  0  0  0  0  0  0  0  0  0  0  0
   14.5712  -20.2217    2.8103 H   0  0  0  0  0  0  0  0  0  0  0  0
   15.7260  -16.8114   -0.3556 H   0  0  0  0  0  0  0  0  0  0  0  0
   13.0424  -15.9374    1.8108 H   0  0  0  0  0  0  0  0  0  0  0  0
   13.9164  -15.4540    0.5189 H   0  0  0  0  0  0  0  0  0  0  0  0
   16.1278  -20.6903    1.0503 H   0  0  0  0  0  0  0  0  0  0  0  0
   13.9926  -15.8086    3.9954 H   0  0  0  0  0  0  0  0  0  0  0  0
   13.1603  -14.5335    3.4052 H   0  0  0  0  0  0  0  0  0  0  0  0
   13.9873  -13.3479    1.4926 H   0  0  0  0  0  0  0  0  0  0  0  0
   15.3738  -13.8255    0.7741 H   0  0  0  0  0  0  0  0  0  0  0  0
   15.5758  -14.4654    4.9450 H   0  0  0  0  0  0  0  0  0  0  0  0
   14.1587  -13.7332    5.2951 H   0  0  0  0  0  0  0  0  0  0  0  0
   15.5347  -11.7927    2.1343 H   0  0  0  0  0  0  0  0  0  0  0  0
   16.6606  -12.9349    2.4416 H   0  0  0  0  0  0  0  0  0  0  0  0
   12.8778  -10.6344    4.5687 H   0  0  0  0  0  0  0  0  0  0  0  0
   16.6679  -12.3869    6.6864 H   0  0  0  0  0  0  0  0  0  0  0  0
   11.9074  -10.8247    8.5006 H   0  0  0  0  0  0  0  0  0  0  0  0
   13.4678  -11.6581   10.1429 H   0  0  0  0  0  0  0  0  0  0  0  0
   15.6188  -12.5568   10.6816 H   0  0  0  0  0  0  0  0  0  0  0  0
   19.3191  -13.6445    8.3039 H   0  0  0  0  0  0  0  0  0  0  0  0
   18.0789  -13.9156    7.2768 H   0  0  0  0  0  0  0  0  0  0  0  0
   18.6612  -12.4025    7.4725 H   0  0  0  0  0  0  0  0  0  0  0  0
   15.6946  -15.4325    2.4412 H   0  0  0  0  0  0  0  0  0  0  0  0
  1  2  1  0  0  0  0
  2  3  2  0  0  0  0
  2  4  1  0  0  0  0
  3  5  1  0  0  0  0
  3  6  1  0  0  0  0
  4  7  2  0  0  0  0
  5  8  2  0  0  0  0
  6  9  1  0  0  0  0
  8 10  1  0  0  0  0
  9 11  1  0  0  0  0
  9 12  1  0  0  0  0
 11 13  1  0  0  0  0
 12 14  1  0  0  0  0
 13 15  1  0  0  0  0
 15 16  1  0  0  0  0
 16 17  2  0  0  0  0
 16 18  1  0  0  0  0
 18 19  1  0  0  0  0
 18 20  2  0  0  0  0
 19 21  1  0  0  0  0
 19 22  2  0  0  0  0
 20 23  1  0  0  0  0
 21 24  1  0  0  0  0
 21 25  2  0  0  0  0
 22 26  1  0  0  0  0
 25 27  1  0  0  0  0
 26 28  1  0  0  0  0
 28 29  1  0  0  0  0
  7  8  1  0  0  0  0
 14 15  1  0  0  0  0
 23 24  2  0  0  0  0
 26 27  2  0  0  0  0
  4 30  1  0  0  0  0
  5 31  1  0  0  0  0
  6 32  1  0  0  0  0
  6 33  1  0  0  0  0
  7 34  1  0  0  0  0
 11 35  1  0  0  0  0
 11 36  1  0  0  0  0
 12 37  1  0  0  0  0
 12 38  1  0  0  0  0
 13 39  1  0  0  0  0
 13 40  1  0  0  0  0
 14 41  1  0  0  0  0
 14 42  1  0  0  0  0
 20 43  1  0  0  0  0
 22 44  1  0  0  0  0
 24 45  1  0  0  0  0
 25 46  1  0  0  0  0
 27 47  1  0  0  0  0
 29 48  1  0  0  0  0
 29 49  1  0  0  0  0
 29 50  1  0  0  0  0
  9 51  1  0  0  0  0
M  CHG  1   9   1
M  END
> <BIOSOLVEIT.HYDE_ESTIMATED_AFFINITY_LOWER_BOUNDARY [nM]>
19439489.057378

> <BIOSOLVEIT.HYDE_ESTIMATED_AFFINITY_UPPER_BOUNDARY [nM]>
1931428173.205948

> <BIOSOLVEIT.HYDE_LIGAND_EFFICIENCY range: ++, +, 0, -, -->
--

> <BIOSOLVEIT.HYDE_LIGAND_LIPOPHILIC_EFFICIENCY range: ++, +, 0, -, -->
--

> <BIOSOLVEIT.INTER_CLASH range: red, yellow, green>
green

> <BIOSOLVEIT.INTRA_CLASH range: red, yellow, green>
green

> <BIOSOLVEIT.LOGP>
3.0911

> <BIOSOLVEIT.MOLECULAR WEIGHT>
431.341

> <BIOSOLVEIT.MOLECULE_CHECKSUM>
LTQuMDY4MjswLjE0MDI4Mw==

> <BIOSOLVEIT.TORSION_QUALITY range: red, yellow, green, not rotatable>
green

> <BIOSOLVEIT.TPSA>
46.87

> <BIOSOLVEIT.SEESAR_FAVORITE>
favorite

> <smc_score>
0.938

> <QED_score>
0.611

> <distance>
0.545

> <SimilarityPheSA_1>
0.652

> <Smiles>
COc1ccc2cncc(C(=O)N3CCN(Cc4cc(Cl)ccc4Cl)CC3)c2c1

> <Similarity_SkelSpheres>
0.76

> <Cluster No>
209.0

> <QueryID>
MAR-UCB-f313ec4d-2

> <SimilarityPheSA>
0.6516

> <Postera series>
None

> <PDB_code>
Mpro-x11813

> <Approach>
DGM_focussed_RL

> <ID>
20210618_410

> <SimilarityPheSA_2>
0.774

> <OPTIBRIUM.logD>
2.61905

> <OPTIBRIUM.BBB category>
-

> <OPTIBRIUM.logP>
2.79549

> <OPTIBRIUM.P-gp category>
yes

> <OPTIBRIUM.logS>
1.96702

> <OPTIBRIUM.HIA category>
+

> <OPTIBRIUM.PPB90 category>
high

> <OPTIBRIUM.2D6 affinity category>
medium

> <OPTIBRIUM.hERG pIC50>
5.79782

> <OPTIBRIUM.2C9 pKi>
5.80411

> <OPTIBRIUM.BBB log([brain]:[blood])>
-0.451557

> <OPTIBRIUM.logS @ pH7.4>
1.73621

$$$$
Compound 411_1_08
haSeeSAR  07122114523D 1   1.00000     0.00000     0
SeeSAR 11.0.2 hazemaj
 51 54  0  0  0  0            999 V2000
   12.5937  -17.6431    3.1389 Cl  0  0  0  0  0  0  0  0  0  0  0  0
   13.8762  -18.0933    1.9891 C   0  0  0  0  0  0  0  0  0  0  0  0
   14.4186  -17.1327    1.1419 C   0  0  0  0  0  0  0  0  0  0  0  0
   14.3264  -19.4089    1.9475 C   0  0  0  0  0  0  0  0  0  0  0  0
   15.4209  -17.4837    0.2432 C   0  0  0  0  0  0  0  0  0  0  0  0
   13.9276  -15.6949    1.1857 C   0  0  0  0  0  0  0  0  0  0  0  0
   15.3285  -19.7598    1.0484 C   0  0  0  0  0  0  0  0  0  0  0  0
   15.8705  -18.7993    0.2020 C   0  0  0  0  0  0  0  0  0  0  0  0
   14.7416  -14.9281    2.1398 N   0  3  2  0  0  0  0  0  0  0  0  0
   17.1530  -19.2539   -0.9460 Cl  0  0  0  0  0  0  0  0  0  0  0  0
   13.9365  -14.7785    3.3631 C   0  0  0  0  0  0  0  0  0  0  0  0
   14.9940  -13.6139    1.5261 C   0  0  0  0  0  0  0  0  0  0  0  0
   14.6371  -13.9272    4.4121 C   0  0  0  0  0  0  0  0  0  0  0  0
   15.7734  -12.6886    2.4489 C   0  0  0  0  0  0  0  0  0  0  0  0
   15.2409  -12.7227    3.8205 N   0  0  0  0  0  0  0  0  0  0  0  0
   15.3031  -11.5615    4.5846 C   0  0  0  0  0  0  0  0  0  0  0  0
   16.1187  -10.6831    4.3042 O   0  0  0  0  0  0  0  0  0  0  0  0
   14.4061  -11.3857    5.7128 C   0  0  0  0  0  0  0  0  0  0  0  0
   14.7602  -11.7035    7.0237 C   0  0  0  0  0  0  0  0  0  0  0  0
   13.1369  -10.8764    5.4602 C   0  0  0  0  0  0  0  0  0  0  0  0
   13.8434  -11.5062    8.0510 C   0  0  0  0  0  0  0  0  0  0  0  0
   16.0131  -12.2174    7.3505 C   0  0  0  0  0  0  0  0  0  0  0  0
   12.2685  -10.6946    6.4660 N   0  0  0  0  0  0  0  0  0  0  0  0
   12.5898  -10.9936    7.7337 C   0  0  0  0  0  0  0  0  0  0  0  0
   14.1653  -11.8137    9.3694 C   0  0  0  0  0  0  0  0  0  0  0  0
   16.3511  -12.5289    8.6632 C   0  0  0  0  0  0  0  0  0  0  0  0
   15.4211  -12.3257    9.6775 C   0  0  0  0  0  0  0  0  0  0  0  0
   17.5795  -13.0235    8.9233 O   0  0  0  0  0  0  0  0  0  0  0  0
   18.5058  -12.2605    9.6825 C   0  0  0  0  0  0  0  0  0  0  0  0
   13.9332  -20.0962    2.5583 H   0  0  0  0  0  0  0  0  0  0  0  0
   15.8144  -16.7966   -0.3675 H   0  0  0  0  0  0  0  0  0  0  0  0
   12.9706  -15.6781    1.4751 H   0  0  0  0  0  0  0  0  0  0  0  0
   14.0080  -15.2873    0.2760 H   0  0  0  0  0  0  0  0  0  0  0  0
   15.6588  -20.7029    1.0111 H   0  0  0  0  0  0  0  0  0  0  0  0
   13.7633  -15.6852    3.7475 H   0  0  0  0  0  0  0  0  0  0  0  0
   13.0670  -14.3456    3.1253 H   0  0  0  0  0  0  0  0  0  0  0  0
   14.1166  -13.1867    1.3078 H   0  0  0  0  0  0  0  0  0  0  0  0
   15.5185  -13.7466    0.6852 H   0  0  0  0  0  0  0  0  0  0  0  0
   15.3562  -14.4716    4.8439 H   0  0  0  0  0  0  0  0  0  0  0  0
   13.9694  -13.6493    5.1027 H   0  0  0  0  0  0  0  0  0  0  0  0
   15.7119  -11.7537    2.0994 H   0  0  0  0  0  0  0  0  0  0  0  0
   16.7309  -12.9763    2.4647 H   0  0  0  0  0  0  0  0  0  0  0  0
   12.8706  -10.6447    4.5246 H   0  0  0  0  0  0  0  0  0  0  0  0
   16.6849  -12.3656    6.6248 H   0  0  0  0  0  0  0  0  0  0  0  0
   11.9189  -10.8457    8.4605 H   0  0  0  0  0  0  0  0  0  0  0  0
   13.4936  -11.6665   10.0955 H   0  0  0  0  0  0  0  0  0  0  0  0
   15.6547  -12.5469   10.6242 H   0  0  0  0  0  0  0  0  0  0  0  0
   19.3591  -12.7729    9.7794 H   0  0  0  0  0  0  0  0  0  0  0  0
   18.6878  -11.3956    9.2147 H   0  0  0  0  0  0  0  0  0  0  0  0
   18.1230  -12.0759   10.5876 H   0  0  0  0  0  0  0  0  0  0  0  0
   15.6010  -15.4008    2.3348 H   0  0  0  0  0  0  0  0  0  0  0  0
  1  2  1  0  0  0  0
  2  3  2  0  0  0  0
  2  4  1  0  0  0  0
  3  5  1  0  0  0  0
  3  6  1  0  0  0  0
  4  7  2  0  0  0  0
  5  8  2  0  0  0  0
  6  9  1  0  0  0  0
  8 10  1  0  0  0  0
  9 11  1  0  0  0  0
  9 12  1  0  0  0  0
 11 13  1  0  0  0  0
 12 14  1  0  0  0  0
 13 15  1  0  0  0  0
 15 16  1  0  0  0  0
 16 17  2  0  0  0  0
 16 18  1  0  0  0  0
 18 19  1  0  0  0  0
 18 20  2  0  0  0  0
 19 21  1  0  0  0  0
 19 22  2  0  0  0  0
 20 23  1  0  0  0  0
 21 24  1  0  0  0  0
 21 25  2  0  0  0  0
 22 26  1  0  0  0  0
 25 27  1  0  0  0  0
 26 28  1  0  0  0  0
 28 29  1  0  0  0  0
  7  8  1  0  0  0  0
 14 15  1  0  0  0  0
 23 24  2  0  0  0  0
 26 27  2  0  0  0  0
  4 30  1  0  0  0  0
  5 31  1  0  0  0  0
  6 32  1  0  0  0  0
  6 33  1  0  0  0  0
  7 34  1  0  0  0  0
 11 35  1  0  0  0  0
 11 36  1  0  0  0  0
 12 37  1  0  0  0  0
 12 38  1  0  0  0  0
 13 39  1  0  0  0  0
 13 40  1  0  0  0  0
 14 41  1  0  0  0  0
 14 42  1  0  0  0  0
 20 43  1  0  0  0  0
 22 44  1  0  0  0  0
 24 45  1  0  0  0  0
 25 46  1  0  0  0  0
 27 47  1  0  0  0  0
 29 48  1  0  0  0  0
 29 49  1  0  0  0  0
 29 50  1  0  0  0  0
  9 51  1  0  0  0  0
M  CHG  1   9   1
M  END
> <BIOSOLVEIT.HYDE_ESTIMATED_AFFINITY_LOWER_BOUNDARY [nM]>
17617703.503871

> <BIOSOLVEIT.HYDE_ESTIMATED_AFFINITY_UPPER_BOUNDARY [nM]>
1750423007.216414

> <BIOSOLVEIT.HYDE_LIGAND_EFFICIENCY range: ++, +, 0, -, -->
--

> <BIOSOLVEIT.HYDE_LIGAND_LIPOPHILIC_EFFICIENCY range: ++, +, 0, -, -->
--

> <BIOSOLVEIT.INTER_CLASH range: red, yellow, green>
green

> <BIOSOLVEIT.INTRA_CLASH range: red, yellow, green>
green

> <BIOSOLVEIT.LOGP>
3.0911

> <BIOSOLVEIT.MOLECULAR WEIGHT>
431.341

> <BIOSOLVEIT.MOLECULE_CHECKSUM>
LTQuMzEyMTQ7MC4xNDg2OTQ=

> <BIOSOLVEIT.TORSION_QUALITY range: red, yellow, green, not rotatable>
yellow

> <BIOSOLVEIT.TPSA>
46.87

> <BIOSOLVEIT.SEESAR_FAVORITE>
favorite

> <smc_score>
0.938

> <QED_score>
0.611

> <distance>
0.545

> <SimilarityPheSA_1>
0.652

> <Smiles>
COc1ccc2cncc(C(=O)N3CCN(Cc4cc(Cl)ccc4Cl)CC3)c2c1

> <Similarity_SkelSpheres>
0.76

> <Cluster No>
209.0

> <QueryID>
MAR-UCB-f313ec4d-2

> <SimilarityPheSA>
0.6516

> <Postera series>
None

> <PDB_code>
Mpro-x11813

> <Approach>
DGM_focussed_RL

> <ID>
20210618_410

> <SimilarityPheSA_2>
0.774

> <OPTIBRIUM.logD>
2.61905

> <OPTIBRIUM.BBB category>
-

> <OPTIBRIUM.logP>
2.79549

> <OPTIBRIUM.P-gp category>
yes

> <OPTIBRIUM.logS>
1.96702

> <OPTIBRIUM.HIA category>
+

> <OPTIBRIUM.PPB90 category>
high

> <OPTIBRIUM.2D6 affinity category>
medium

> <OPTIBRIUM.hERG pIC50>
5.79782

> <OPTIBRIUM.2C9 pKi>
5.80411

> <OPTIBRIUM.BBB log([brain]:[blood])>
-0.451557

> <OPTIBRIUM.logS @ pH7.4>
1.73621

$$$$
Compound 411_1_10
haSeeSAR  07122114523D 1   1.00000     0.00000     0
SeeSAR 11.0.2 hazemaj
 51 54  0  0  0  0            999 V2000
   12.3084  -15.8953    1.6419 Cl  0  0  0  0  0  0  0  0  0  0  0  0
   13.7204  -16.4211    0.6934 C   0  0  0  0  0  0  0  0  0  0  0  0
   14.9109  -16.7402    1.3379 C   0  0  0  0  0  0  0  0  0  0  0  0
   13.6200  -16.5079   -0.6914 C   0  0  0  0  0  0  0  0  0  0  0  0
   16.0146  -17.1512    0.5975 C   0  0  0  0  0  0  0  0  0  0  0  0
   15.0224  -16.6454    2.8509 C   0  0  0  0  0  0  0  0  0  0  0  0
   14.7240  -16.9187   -1.4318 C   0  0  0  0  0  0  0  0  0  0  0  0
   15.9137  -17.2378   -0.7871 C   0  0  0  0  0  0  0  0  0  0  0  0
   15.6805  -15.3828    3.2156 N   0  3  2  0  0  0  0  0  0  0  0  0
   17.3229  -17.7634   -1.7394 Cl  0  0  0  0  0  0  0  0  0  0  0  0
   15.5791  -15.2563    4.6788 C   0  0  0  0  0  0  0  0  0  0  0  0
   14.9301  -14.3033    2.5530 C   0  0  0  0  0  0  0  0  0  0  0  0
   16.1557  -13.9417    5.1838 C   0  0  0  0  0  0  0  0  0  0  0  0
   15.4696  -12.9258    2.9086 C   0  0  0  0  0  0  0  0  0  0  0  0
   15.7284  -12.8052    4.3524 N   0  0  0  0  0  0  0  0  0  0  0  0
   15.5503  -11.5643    4.9562 C   0  0  0  0  0  0  0  0  0  0  0  0
   16.2650  -10.6150    4.6345 O   0  0  0  0  0  0  0  0  0  0  0  0
   14.5216  -11.3892    5.9659 C   0  0  0  0  0  0  0  0  0  0  0  0
   14.7191  -11.6880    7.3137 C   0  0  0  0  0  0  0  0  0  0  0  0
   13.2859  -10.9003    5.5561 C   0  0  0  0  0  0  0  0  0  0  0  0
   13.6827  -11.4927    8.2207 C   0  0  0  0  0  0  0  0  0  0  0  0
   15.9297  -12.1808    7.7954 C   0  0  0  0  0  0  0  0  0  0  0  0
   12.3003  -10.7200    6.4475 N   0  0  0  0  0  0  0  0  0  0  0  0
   12.4700  -11.0009    7.7484 C   0  0  0  0  0  0  0  0  0  0  0  0
   13.8470  -11.7815    9.5719 C   0  0  0  0  0  0  0  0  0  0  0  0
   16.1109  -12.4736    9.1429 C   0  0  0  0  0  0  0  0  0  0  0  0
   15.0628  -12.2727   10.0352 C   0  0  0  0  0  0  0  0  0  0  0  0
   17.3049  -12.9483    9.5551 O   0  0  0  0  0  0  0  0  0  0  0  0
   18.3478  -13.1599    8.6149 C   0  0  0  0  0  0  0  0  0  0  0  0
   12.7621  -16.2772   -1.1505 H   0  0  0  0  0  0  0  0  0  0  0  0
   16.8725  -17.3824    1.0563 H   0  0  0  0  0  0  0  0  0  0  0  0
   15.5624  -17.4140    3.1941 H   0  0  0  0  0  0  0  0  0  0  0  0
   14.1080  -16.6737    3.2549 H   0  0  0  0  0  0  0  0  0  0  0  0
   14.6618  -16.9843   -2.4276 H   0  0  0  0  0  0  0  0  0  0  0  0
   16.0794  -16.0113    5.1027 H   0  0  0  0  0  0  0  0  0  0  0  0
   14.6152  -15.3068    4.9403 H   0  0  0  0  0  0  0  0  0  0  0  0
   13.9723  -14.3567    2.8351 H   0  0  0  0  0  0  0  0  0  0  0  0
   14.9934  -14.4281    1.5628 H   0  0  0  0  0  0  0  0  0  0  0  0
   17.1540  -13.9980    5.1675 H   0  0  0  0  0  0  0  0  0  0  0  0
   15.8457  -13.7912    6.1226 H   0  0  0  0  0  0  0  0  0  0  0  0
   14.7989  -12.2345    2.6397 H   0  0  0  0  0  0  0  0  0  0  0  0
   16.3237  -12.7728    2.4113 H   0  0  0  0  0  0  0  0  0  0  0  0
   13.1315  -10.6823    4.5924 H   0  0  0  0  0  0  0  0  0  0  0  0
   16.6859  -12.3274    7.1577 H   0  0  0  0  0  0  0  0  0  0  0  0
   11.7147  -10.8547    8.3871 H   0  0  0  0  0  0  0  0  0  0  0  0
   13.0908  -11.6360   10.2099 H   0  0  0  0  0  0  0  0  0  0  0  0
   15.1832  -12.4805   11.0059 H   0  0  0  0  0  0  0  0  0  0  0  0
   19.1561  -13.5114    9.0871 H   0  0  0  0  0  0  0  0  0  0  0  0
   18.0482  -13.8227    7.9286 H   0  0  0  0  0  0  0  0  0  0  0  0
   18.5732  -12.2949    8.1668 H   0  0  0  0  0  0  0  0  0  0  0  0
   16.6369  -15.3825    2.9237 H   0  0  0  0  0  0  0  0  0  0  0  0
  1  2  1  0  0  0  0
  2  3  2  0  0  0  0
  2  4  1  0  0  0  0
  3  5  1  0  0  0  0
  3  6  1  0  0  0  0
  4  7  2  0  0  0  0
  5  8  2  0  0  0  0
  6  9  1  0  0  0  0
  8 10  1  0  0  0  0
  9 11  1  0  0  0  0
  9 12  1  0  0  0  0
 11 13  1  0  0  0  0
 12 14  1  0  0  0  0
 13 15  1  0  0  0  0
 15 16  1  0  0  0  0
 16 17  2  0  0  0  0
 16 18  1  0  0  0  0
 18 19  1  0  0  0  0
 18 20  2  0  0  0  0
 19 21  1  0  0  0  0
 19 22  2  0  0  0  0
 20 23  1  0  0  0  0
 21 24  1  0  0  0  0
 21 25  2  0  0  0  0
 22 26  1  0  0  0  0
 25 27  1  0  0  0  0
 26 28  1  0  0  0  0
 28 29  1  0  0  0  0
  7  8  1  0  0  0  0
 14 15  1  0  0  0  0
 23 24  2  0  0  0  0
 26 27  2  0  0  0  0
  4 30  1  0  0  0  0
  5 31  1  0  0  0  0
  6 32  1  0  0  0  0
  6 33  1  0  0  0  0
  7 34  1  0  0  0  0
 11 35  1  0  0  0  0
 11 36  1  0  0  0  0
 12 37  1  0  0  0  0
 12 38  1  0  0  0  0
 13 39  1  0  0  0  0
 13 40  1  0  0  0  0
 14 41  1  0  0  0  0
 14 42  1  0  0  0  0
 20 43  1  0  0  0  0
 22 44  1  0  0  0  0
 24 45  1  0  0  0  0
 25 46  1  0  0  0  0
 27 47  1  0  0  0  0
 29 48  1  0  0  0  0
 29 49  1  0  0  0  0
 29 50  1  0  0  0  0
  9 51  1  0  0  0  0
M  CHG  1   9   1
M  END
> <BIOSOLVEIT.HYDE_ESTIMATED_AFFINITY_LOWER_BOUNDARY [nM]>
960394.722774

> <BIOSOLVEIT.HYDE_ESTIMATED_AFFINITY_UPPER_BOUNDARY [nM]>
95420894.010567

> <BIOSOLVEIT.HYDE_LIGAND_EFFICIENCY range: ++, +, 0, -, -->
--

> <BIOSOLVEIT.HYDE_LIGAND_LIPOPHILIC_EFFICIENCY range: ++, +, 0, -, -->
--

> <BIOSOLVEIT.INTER_CLASH range: red, yellow, green>
green

> <BIOSOLVEIT.INTRA_CLASH range: red, yellow, green>
green

> <BIOSOLVEIT.LOGP>
3.0911

> <BIOSOLVEIT.MOLECULAR WEIGHT>
431.341

> <BIOSOLVEIT.MOLECULE_CHECKSUM>
LTExLjUyNDI7MC4zOTczODY=

> <BIOSOLVEIT.TORSION_QUALITY range: red, yellow, green, not rotatable>
yellow

> <BIOSOLVEIT.TPSA>
46.87

> <BIOSOLVEIT.SEESAR_FAVORITE>
favorite

> <smc_score>
0.938

> <QED_score>
0.611

> <distance>
0.545

> <SimilarityPheSA_1>
0.652

> <Smiles>
COc1ccc2cncc(C(=O)N3CCN(Cc4cc(Cl)ccc4Cl)CC3)c2c1

> <Similarity_SkelSpheres>
0.76

> <Cluster No>
209.0

> <QueryID>
MAR-UCB-f313ec4d-2

> <SimilarityPheSA>
0.6516

> <Postera series>
None

> <PDB_code>
Mpro-x11813

> <Approach>
DGM_focussed_RL

> <ID>
20210618_410

> <SimilarityPheSA_2>
0.774

> <OPTIBRIUM.logD>
2.61905

> <OPTIBRIUM.BBB category>
-

> <OPTIBRIUM.logP>
2.79549

> <OPTIBRIUM.P-gp category>
yes

> <OPTIBRIUM.logS>
1.96702

> <OPTIBRIUM.HIA category>
+

> <OPTIBRIUM.PPB90 category>
high

> <OPTIBRIUM.2D6 affinity category>
medium

> <OPTIBRIUM.hERG pIC50>
5.79782

> <OPTIBRIUM.2C9 pKi>
5.80411

> <OPTIBRIUM.BBB log([brain]:[blood])>
-0.451557

> <OPTIBRIUM.logS @ pH7.4>
1.73621

$$$$
Compound 429_1_1
haSeeSAR  07122114523D 1   1.00000     0.00000     0
SeeSAR 11.0.2 hazemaj
 42 44  0  0  0  0            999 V2000
   16.1582  -16.2935   -2.2732 Cl  0  0  0  0  0  0  0  0  0  0  0  0
   16.1140  -14.9719   -1.0821 C   0  0  0  0  0  0  0  0  0  0  0  0
   16.9337  -13.8609   -1.2473 C   0  0  0  0  0  0  0  0  0  0  0  0
   15.2566  -15.0594    0.0096 C   0  0  0  0  0  0  0  0  0  0  0  0
   18.0240  -13.7685   -2.6513 Cl  0  0  0  0  0  0  0  0  0  0  0  0
   16.9100  -12.8201   -0.3251 C   0  0  0  0  0  0  0  0  0  0  0  0
   15.2312  -14.0198    0.9332 C   0  0  0  0  0  0  0  0  0  0  0  0
   16.0516  -12.9093    0.7658 C   0  0  0  0  0  0  0  0  0  0  0  0
   14.4001  -14.1037    1.9934 O   0  0  0  0  0  0  0  0  0  0  0  0
   16.0225  -11.7732    1.7753 C   0  0  0  0  0  0  0  0  0  0  0  0
   13.6333  -15.2803    2.2032 C   0  0  0  0  0  0  0  0  0  0  0  0
   16.1992  -12.3166    3.1299 N   0  0  0  0  0  0  0  0  0  0  0  0
   15.8983  -11.6528    4.3138 C   0  0  0  0  0  0  0  0  0  0  0  0
   16.7203  -13.6422    3.4595 C   0  0  0  0  0  0  0  0  0  0  0  0
   15.4374  -10.5235    4.3976 O   0  0  0  0  0  0  0  0  0  0  0  0
   16.2440  -12.5374    5.4931 C   0  0  2  0  0  0  0  0  0  0  0  0
   17.2719  -13.4536    4.8565 C   0  0  0  0  0  0  0  0  0  0  0  0
   15.0466  -13.2977    6.0401 C   0  0  0  0  0  0  0  0  0  0  0  0
   14.0811  -12.3208    6.6940 C   0  0  0  0  0  0  0  0  0  0  0  0
   13.1063  -11.6497    5.9636 C   0  0  0  0  0  0  0  0  0  0  0  0
   14.1651  -12.0828    8.0612 C   0  0  0  0  0  0  0  0  0  0  0  0
   12.2655  -10.7923    6.5604 N   0  0  0  0  0  0  0  0  0  0  0  0
   13.2867  -11.1907    8.6671 C   0  0  0  0  0  0  0  0  0  0  0  0
   12.3354  -10.5528    7.8780 C   0  0  0  0  0  0  0  0  0  0  0  0
   14.6669  -15.8582    0.1287 H   0  0  0  0  0  0  0  0  0  0  0  0
   17.4998  -12.0214   -0.4441 H   0  0  0  0  0  0  0  0  0  0  0  0
   15.1439  -11.2990    1.7183 H   0  0  0  0  0  0  0  0  0  0  0  0
   16.7618  -11.1302    1.5749 H   0  0  0  0  0  0  0  0  0  0  0  0
   13.0769  -15.1731    3.0272 H   0  0  0  0  0  0  0  0  0  0  0  0
   13.0365  -15.4341    1.4157 H   0  0  0  0  0  0  0  0  0  0  0  0
   14.2466  -16.0623    2.3145 H   0  0  0  0  0  0  0  0  0  0  0  0
   17.4415  -13.9136    2.8220 H   0  0  0  0  0  0  0  0  0  0  0  0
   15.9920  -14.3273    3.4500 H   0  0  0  0  0  0  0  0  0  0  0  0
   16.6682  -11.9948    6.2182 H   0  0  0  0  0  0  0  0  0  0  0  0
   18.1746  -13.0239    4.8339 H   0  0  0  0  0  0  0  0  0  0  0  0
   17.3298  -14.3255    5.3431 H   0  0  0  0  0  0  0  0  0  0  0  0
   15.3565  -13.9644    6.7181 H   0  0  0  0  0  0  0  0  0  0  0  0
   14.5839  -13.7735    5.2921 H   0  0  0  0  0  0  0  0  0  0  0  0
   13.0313  -11.8089    4.9791 H   0  0  0  0  0  0  0  0  0  0  0  0
   14.8570  -12.5530    8.6091 H   0  0  0  0  0  0  0  0  0  0  0  0
   13.3379  -11.0117    9.6497 H   0  0  0  0  0  0  0  0  0  0  0  0
   11.6963   -9.9083    8.2980 H   0  0  0  0  0  0  0  0  0  0  0  0
  1  2  1  0  0  0  0
  2  3  2  0  0  0  0
  2  4  1  0  0  0  0
  3  5  1  0  0  0  0
  3  6  1  0  0  0  0
  4  7  2  0  0  0  0
  6  8  2  0  0  0  0
  7  9  1  0  0  0  0
  8 10  1  0  0  0  0
  9 11  1  0  0  0  0
 10 12  1  0  0  0  0
 12 13  1  0  0  0  0
 12 14  1  0  0  0  0
 13 15  2  0  0  0  0
 13 16  1  0  0  0  0
 14 17  1  0  0  0  0
 16 18  1  0  0  0  0
 18 19  1  0  0  0  0
 19 20  2  0  0  0  0
 19 21  1  0  0  0  0
 20 22  1  0  0  0  0
 21 23  2  0  0  0  0
 22 24  2  0  0  0  0
  7  8  1  0  0  0  0
 16 17  1  0  0  0  0
 23 24  1  0  0  0  0
  4 25  1  0  0  0  0
  6 26  1  0  0  0  0
 10 27  1  0  0  0  0
 10 28  1  0  0  0  0
 11 29  1  0  0  0  0
 11 30  1  0  0  0  0
 11 31  1  0  0  0  0
 14 32  1  0  0  0  0
 14 33  1  0  0  0  0
 16 34  1  0  0  0  0
 17 35  1  0  0  0  0
 17 36  1  0  0  0  0
 18 37  1  0  0  0  0
 18 38  1  0  0  0  0
 20 39  1  0  0  0  0
 21 40  1  0  0  0  0
 23 41  1  0  0  0  0
 24 42  1  0  0  0  0
M  END
> <BIOSOLVEIT.HYDE_ESTIMATED_AFFINITY_LOWER_BOUNDARY [nM]>
2082.795199

> <BIOSOLVEIT.HYDE_ESTIMATED_AFFINITY_UPPER_BOUNDARY [nM]>
206938.017494

> <BIOSOLVEIT.HYDE_LIGAND_EFFICIENCY range: ++, +, 0, -, -->
-

> <BIOSOLVEIT.HYDE_LIGAND_LIPOPHILIC_EFFICIENCY range: ++, +, 0, -, -->
--

> <BIOSOLVEIT.INTER_CLASH range: red, yellow, green>
green

> <BIOSOLVEIT.INTRA_CLASH range: red, yellow, green>
yellow

> <BIOSOLVEIT.LOGP>
3.9882

> <BIOSOLVEIT.MOLECULAR WEIGHT>
365.258

> <BIOSOLVEIT.MOLECULE_CHECKSUM>
LTI2LjcyOTI7MS4xMTM3Mg==

> <BIOSOLVEIT.TORSION_QUALITY range: red, yellow, green, not rotatable>
yellow

> <BIOSOLVEIT.TPSA>
42.43

> <BIOSOLVEIT.SEESAR_FAVORITE>
favorite

> <smc_score>
0.875

> <QED_score>
0.805

> <distance>
0.729

> <SimilarityPheSA_1>
0.677

> <Smiles>
COc1cc(Cl)c(Cl)cc1CN1CCC(Cc2cccnc2)C1=O

> <Similarity_SkelSpheres>
0.656

> <Cluster No>
220.0

> <QueryID>
JAN-GHE-5a013bed-2

> <SimilarityPheSA>
0.6768

> <Postera series>
3-aminopyridine-like

> <PDB_code>
Mpro-x10466

> <Approach>
DGM_focussed_RL

> <ID>
20210618_428

> <SimilarityPheSA_2>
0.744

> <OPTIBRIUM.logD>
3.77306

> <OPTIBRIUM.BBB category>
+

> <OPTIBRIUM.logP>
3.77306

> <OPTIBRIUM.P-gp category>
no

> <OPTIBRIUM.logS>
1.14152

> <OPTIBRIUM.HIA category>
+

> <OPTIBRIUM.PPB90 category>
high

> <OPTIBRIUM.2D6 affinity category>
medium

> <OPTIBRIUM.hERG pIC50>
5.0141

> <OPTIBRIUM.2C9 pKi>
5.49533

> <OPTIBRIUM.BBB log([brain]:[blood])>
-0.133325

> <OPTIBRIUM.logS @ pH7.4>
1.14152

$$$$
Compound 429_1_2
haSeeSAR  07122114523D 1   1.00000     0.00000     0
SeeSAR 11.0.2 hazemaj
 42 44  0  0  0  0            999 V2000
   15.1425  -16.2087   -1.4877 Cl  0  0  0  0  0  0  0  0  0  0  0  0
   15.8911  -14.9790   -0.4412 C   0  0  0  0  0  0  0  0  0  0  0  0
   15.4607  -14.8303    0.8725 C   0  0  0  0  0  0  0  0  0  0  0  0
   16.9056  -14.1726   -0.9464 C   0  0  0  0  0  0  0  0  0  0  0  0
   14.1609  -15.8723    1.4995 Cl  0  0  0  0  0  0  0  0  0  0  0  0
   16.0364  -13.8740    1.7023 C   0  0  0  0  0  0  0  0  0  0  0  0
   17.4827  -13.2155   -0.1184 C   0  0  0  0  0  0  0  0  0  0  0  0
   17.0510  -13.0688    1.1954 C   0  0  0  0  0  0  0  0  0  0  0  0
   18.4669  -12.4318   -0.6075 O   0  0  0  0  0  0  0  0  0  0  0  0
   17.6829  -12.0232    2.0999 C   0  0  0  0  0  0  0  0  0  0  0  0
   18.8394  -12.5297   -1.9743 C   0  0  0  0  0  0  0  0  0  0  0  0
   17.3624  -12.3295    3.5018 N   0  0  0  0  0  0  0  0  0  0  0  0
   16.6166  -11.5252    4.3558 C   0  0  0  0  0  0  0  0  0  0  0  0
   17.7735  -13.5276    4.2319 C   0  0  0  0  0  0  0  0  0  0  0  0
   16.1148  -10.4500    4.0612 O   0  0  0  0  0  0  0  0  0  0  0  0
   16.5313  -12.1765    5.7201 C   0  0  2  0  0  0  0  0  0  0  0  0
   17.7567  -13.0697    5.6747 C   0  0  0  0  0  0  0  0  0  0  0  0
   15.2464  -12.9622    5.9270 C   0  0  0  0  0  0  0  0  0  0  0  0
   14.2248  -12.0859    6.6359 C   0  0  0  0  0  0  0  0  0  0  0  0
   13.3263  -11.2889    5.9347 C   0  0  0  0  0  0  0  0  0  0  0  0
   14.1773  -12.0723    8.0255 C   0  0  0  0  0  0  0  0  0  0  0  0
   12.4340  -10.5236    6.5801 N   0  0  0  0  0  0  0  0  0  0  0  0
   13.2468  -11.2735    8.6817 C   0  0  0  0  0  0  0  0  0  0  0  0
   12.3774  -10.5002    7.9198 C   0  0  0  0  0  0  0  0  0  0  0  0
   17.2155  -14.2793   -1.8911 H   0  0  0  0  0  0  0  0  0  0  0  0
   15.7262  -13.7673    2.6470 H   0  0  0  0  0  0  0  0  0  0  0  0
   17.3245  -11.1195    1.8658 H   0  0  0  0  0  0  0  0  0  0  0  0
   18.6752  -12.0306    1.9755 H   0  0  0  0  0  0  0  0  0  0  0  0
   19.5778  -11.8830   -2.1656 H   0  0  0  0  0  0  0  0  0  0  0  0
   19.1518  -13.4595   -2.1688 H   0  0  0  0  0  0  0  0  0  0  0  0
   18.0510  -12.3156   -2.5508 H   0  0  0  0  0  0  0  0  0  0  0  0
   18.6901  -13.8187    3.9578 H   0  0  0  0  0  0  0  0  0  0  0  0
   17.1280  -14.2772    4.0851 H   0  0  0  0  0  0  0  0  0  0  0  0
   16.6334  -11.4878    6.4377 H   0  0  0  0  0  0  0  0  0  0  0  0
   18.5855  -12.5581    5.9013 H   0  0  0  0  0  0  0  0  0  0  0  0
   17.6623  -13.8450    6.2990 H   0  0  0  0  0  0  0  0  0  0  0  0
   15.4361  -13.7706    6.4842 H   0  0  0  0  0  0  0  0  0  0  0  0
   14.8830  -13.2467    5.0398 H   0  0  0  0  0  0  0  0  0  0  0  0
   13.3461  -11.2865    4.9349 H   0  0  0  0  0  0  0  0  0  0  0  0
   14.8122  -12.6367    8.5530 H   0  0  0  0  0  0  0  0  0  0  0  0
   13.2038  -11.2556    9.6806 H   0  0  0  0  0  0  0  0  0  0  0  0
   11.7024   -9.9203    8.3760 H   0  0  0  0  0  0  0  0  0  0  0  0
  1  2  1  0  0  0  0
  2  3  2  0  0  0  0
  2  4  1  0  0  0  0
  3  5  1  0  0  0  0
  3  6  1  0  0  0  0
  4  7  2  0  0  0  0
  6  8  2  0  0  0  0
  7  9  1  0  0  0  0
  8 10  1  0  0  0  0
  9 11  1  0  0  0  0
 10 12  1  0  0  0  0
 12 13  1  0  0  0  0
 12 14  1  0  0  0  0
 13 15  2  0  0  0  0
 13 16  1  0  0  0  0
 14 17  1  0  0  0  0
 16 18  1  0  0  0  0
 18 19  1  0  0  0  0
 19 20  2  0  0  0  0
 19 21  1  0  0  0  0
 20 22  1  0  0  0  0
 21 23  2  0  0  0  0
 22 24  2  0  0  0  0
  7  8  1  0  0  0  0
 16 17  1  0  0  0  0
 23 24  1  0  0  0  0
  4 25  1  0  0  0  0
  6 26  1  0  0  0  0
 10 27  1  0  0  0  0
 10 28  1  0  0  0  0
 11 29  1  0  0  0  0
 11 30  1  0  0  0  0
 11 31  1  0  0  0  0
 14 32  1  0  0  0  0
 14 33  1  0  0  0  0
 16 34  1  0  0  0  0
 17 35  1  0  0  0  0
 17 36  1  0  0  0  0
 18 37  1  0  0  0  0
 18 38  1  0  0  0  0
 20 39  1  0  0  0  0
 21 40  1  0  0  0  0
 23 41  1  0  0  0  0
 24 42  1  0  0  0  0
M  END
> <BIOSOLVEIT.HYDE_ESTIMATED_AFFINITY_LOWER_BOUNDARY [nM]>
25449.070208

> <BIOSOLVEIT.HYDE_ESTIMATED_AFFINITY_UPPER_BOUNDARY [nM]>
2528515.591948

> <BIOSOLVEIT.HYDE_LIGAND_EFFICIENCY range: ++, +, 0, -, -->
-

> <BIOSOLVEIT.HYDE_LIGAND_LIPOPHILIC_EFFICIENCY range: ++, +, 0, -, -->
--

> <BIOSOLVEIT.INTER_CLASH range: red, yellow, green>
green

> <BIOSOLVEIT.INTRA_CLASH range: red, yellow, green>
green

> <BIOSOLVEIT.LOGP>
3.9882

> <BIOSOLVEIT.MOLECULAR WEIGHT>
365.258

> <BIOSOLVEIT.MOLECULE_CHECKSUM>
LTIwLjUyNDU7MC44NTUxODY=

> <BIOSOLVEIT.TORSION_QUALITY range: red, yellow, green, not rotatable>
green

> <BIOSOLVEIT.TPSA>
42.43

> <BIOSOLVEIT.SEESAR_FAVORITE>
favorite

> <smc_score>
0.875

> <QED_score>
0.805

> <distance>
0.729

> <SimilarityPheSA_1>
0.677

> <Smiles>
COc1cc(Cl)c(Cl)cc1CN1CCC(Cc2cccnc2)C1=O

> <Similarity_SkelSpheres>
0.656

> <Cluster No>
220.0

> <QueryID>
JAN-GHE-5a013bed-2

> <SimilarityPheSA>
0.6768

> <Postera series>
3-aminopyridine-like

> <PDB_code>
Mpro-x10466

> <Approach>
DGM_focussed_RL

> <ID>
20210618_428

> <SimilarityPheSA_2>
0.744

> <OPTIBRIUM.logD>
3.77306

> <OPTIBRIUM.BBB category>
+

> <OPTIBRIUM.logP>
3.77306

> <OPTIBRIUM.P-gp category>
no

> <OPTIBRIUM.logS>
1.14152

> <OPTIBRIUM.HIA category>
+

> <OPTIBRIUM.PPB90 category>
high

> <OPTIBRIUM.2D6 affinity category>
medium

> <OPTIBRIUM.hERG pIC50>
5.0141

> <OPTIBRIUM.2C9 pKi>
5.49533

> <OPTIBRIUM.BBB log([brain]:[blood])>
-0.133325

> <OPTIBRIUM.logS @ pH7.4>
1.14152

$$$$
Compound 342_1_01
haSeeSAR  07122114523D 1   1.00000     0.00000     0
SeeSAR 11.0.2 hazemaj
 51 54  0  0  0  0            999 V2000
   12.3056  -19.0184    5.9625 Cl  0  0  0  0  0  0  0  0  0  0  0  0
   13.7128  -18.2437    5.1951 C   0  0  0  0  0  0  0  0  0  0  0  0
   14.9918  -18.4809    5.6872 C   0  0  0  0  0  0  0  0  0  0  0  0
   13.5199  -17.4052    4.1032 C   0  0  0  0  0  0  0  0  0  0  0  0
   15.2115  -19.5579    7.0871 Cl  0  0  0  0  0  0  0  0  0  0  0  0
   16.0986  -17.8819    5.0940 C   0  0  0  0  0  0  0  0  0  0  0  0
   14.6294  -16.8090    3.5146 C   0  0  0  0  0  0  0  0  0  0  0  0
   15.9111  -17.0412    4.0019 C   0  0  0  0  0  0  0  0  0  0  0  0
   14.4372  -15.8896    2.3193 C   0  0  0  0  0  0  0  0  0  0  0  0
   15.2192  -14.6591    2.5163 N   0  3  2  0  0  0  0  0  0  0  0  0
   14.6018  -13.7975    3.5249 C   0  0  0  0  0  0  0  0  0  0  0  0
   15.1590  -13.8089    1.3244 C   0  0  0  0  0  0  0  0  0  0  0  0
   15.1536  -12.4671    3.2511 N   0  0  0  0  0  0  0  0  0  0  0  0
   15.5395  -12.4377    1.8388 C   0  0  0  0  0  0  0  0  0  0  0  0
   15.3066  -11.4307    4.1814 C   0  0  0  0  0  0  0  0  0  0  0  0
   16.1881  -10.5863    4.0226 O   0  0  0  0  0  0  0  0  0  0  0  0
   14.4289  -11.3531    5.3283 C   0  0  0  0  0  0  0  0  0  0  0  0
   14.8820  -11.7107    6.5966 C   0  0  0  0  0  0  0  0  0  0  0  0
   13.1234  -10.8962    5.1791 C   0  0  0  0  0  0  0  0  0  0  0  0
   13.9878  -11.6182    7.6545 C   0  0  0  0  0  0  0  0  0  0  0  0
   16.3150  -12.1779    6.8143 C   0  0  0  0  0  0  0  0  0  0  0  0
   12.3091  -10.8064    6.2410 N   0  0  0  0  0  0  0  0  0  0  0  0
   12.6901  -11.1494    7.4800 C   0  0  0  0  0  0  0  0  0  0  0  0
   14.4042  -12.0370    9.0545 C   0  0  0  0  0  0  0  0  0  0  0  0
   16.4658  -12.9131    8.1329 C   0  0  0  0  0  0  0  0  0  0  0  0
   15.8699  -12.0717    9.1785 N   0  3  2  0  0  0  0  0  0  0  0  0
   16.2630  -12.6236   10.4846 C   0  0  0  0  0  0  0  0  0  0  0  0
   12.6008  -17.2343    3.7480 H   0  0  0  0  0  0  0  0  0  0  0  0
   17.0177  -18.0538    5.4485 H   0  0  0  0  0  0  0  0  0  0  0  0
   16.6982  -16.6035    3.5671 H   0  0  0  0  0  0  0  0  0  0  0  0
   13.4685  -15.6580    2.2292 H   0  0  0  0  0  0  0  0  0  0  0  0
   14.7478  -16.3526    1.4892 H   0  0  0  0  0  0  0  0  0  0  0  0
   14.8461  -14.0995    4.4464 H   0  0  0  0  0  0  0  0  0  0  0  0
   13.6065  -13.7951    3.4278 H   0  0  0  0  0  0  0  0  0  0  0  0
   14.2364  -13.8011    0.9386 H   0  0  0  0  0  0  0  0  0  0  0  0
   15.8077  -14.1216    0.6307 H   0  0  0  0  0  0  0  0  0  0  0  0
   15.0397  -11.7234    1.3490 H   0  0  0  0  0  0  0  0  0  0  0  0
   16.5227  -12.2825    1.7425 H   0  0  0  0  0  0  0  0  0  0  0  0
   12.7899  -10.6329    4.2740 H   0  0  0  0  0  0  0  0  0  0  0  0
   16.9199  -11.3816    6.8152 H   0  0  0  0  0  0  0  0  0  0  0  0
   16.5735  -12.7919    6.0684 H   0  0  0  0  0  0  0  0  0  0  0  0
   12.0614  -11.0708    8.2537 H   0  0  0  0  0  0  0  0  0  0  0  0
   14.0377  -12.9475    9.2464 H   0  0  0  0  0  0  0  0  0  0  0  0
   14.0352  -11.3831    9.7150 H   0  0  0  0  0  0  0  0  0  0  0  0
   17.4342  -13.0669    8.3292 H   0  0  0  0  0  0  0  0  0  0  0  0
   15.9907  -13.7920    8.0899 H   0  0  0  0  0  0  0  0  0  0  0  0
   17.2604  -12.6405   10.5529 H   0  0  0  0  0  0  0  0  0  0  0  0
   15.8885  -12.0517   11.2145 H   0  0  0  0  0  0  0  0  0  0  0  0
   15.9070  -13.5538   10.5742 H   0  0  0  0  0  0  0  0  0  0  0  0
   16.1661  -14.8713    2.7575 H   0  0  0  0  0  0  0  0  0  0  0  0
   16.2281  -11.1419    9.0945 H   0  0  0  0  0  0  0  0  0  0  0  0
  1  2  1  0  0  0  0
  2  3  2  0  0  0  0
  2  4  1  0  0  0  0
  3  5  1  0  0  0  0
  3  6  1  0  0  0  0
  4  7  2  0  0  0  0
  6  8  2  0  0  0  0
  7  9  1  0  0  0  0
  9 10  1  0  0  0  0
 10 11  1  0  0  0  0
 10 12  1  0  0  0  0
 11 13  1  0  0  0  0
 12 14  1  0  0  0  0
 13 15  1  0  0  0  0
 15 16  2  0  0  0  0
 15 17  1  0  0  0  0
 17 18  2  0  0  0  0
 17 19  1  0  0  0  0
 18 20  1  0  0  0  0
 18 21  1  0  0  0  0
 19 22  2  0  0  0  0
 20 23  2  0  0  0  0
 20 24  1  0  0  0  0
 21 25  1  0  0  0  0
 24 26  1  0  0  0  0
 26 27  1  0  0  0  0
  7  8  1  0  0  0  0
 13 14  1  0  0  0  0
 22 23  1  0  0  0  0
 25 26  1  0  0  0  0
  4 28  1  0  0  0  0
  6 29  1  0  0  0  0
  8 30  1  0  0  0  0
  9 31  1  0  0  0  0
  9 32  1  0  0  0  0
 11 33  1  0  0  0  0
 11 34  1  0  0  0  0
 12 35  1  0  0  0  0
 12 36  1  0  0  0  0
 14 37  1  0  0  0  0
 14 38  1  0  0  0  0
 19 39  1  0  0  0  0
 21 40  1  0  0  0  0
 21 41  1  0  0  0  0
 23 42  1  0  0  0  0
 24 43  1  0  0  0  0
 24 44  1  0  0  0  0
 25 45  1  0  0  0  0
 25 46  1  0  0  0  0
 27 47  1  0  0  0  0
 27 48  1  0  0  0  0
 27 49  1  0  0  0  0
 10 50  1  0  0  0  0
 26 51  1  0  0  0  0
M  CHG  2  10   1  26   1
M  END
> <BIOSOLVEIT.HYDE_ESTIMATED_AFFINITY_LOWER_BOUNDARY [nM]>
689523874.638279

> <BIOSOLVEIT.HYDE_ESTIMATED_AFFINITY_UPPER_BOUNDARY [nM]>
68508273733.101616

> <BIOSOLVEIT.HYDE_LIGAND_EFFICIENCY range: ++, +, 0, -, -->
--

> <BIOSOLVEIT.HYDE_LIGAND_LIPOPHILIC_EFFICIENCY range: ++, +, 0, -, -->
--

> <BIOSOLVEIT.INTER_CLASH range: red, yellow, green>
green

> <BIOSOLVEIT.INTRA_CLASH range: red, yellow, green>
green

> <BIOSOLVEIT.LOGP>
0.4576

> <BIOSOLVEIT.MOLECULAR WEIGHT>
407.343

> <BIOSOLVEIT.MOLECULE_CHECKSUM>
NC43Nzg0NDsw

> <BIOSOLVEIT.TORSION_QUALITY range: red, yellow, green, not rotatable>
green

> <BIOSOLVEIT.TPSA>
42.08

> <BIOSOLVEIT.SEESAR_FAVORITE>
favorite

> <smc_score>
0.625

> <QED_score>
0.786

> <distance>
0.68

> <SimilarityPheSA_1>
0.653

> <Smiles>
CN1CCc2c(cncc2C(=O)N2CCN(Cc3ccc(Cl)c(Cl)c3)C2)C1

> <Similarity_SkelSpheres>
0.629

> <Cluster No>
171.0

> <QueryID>
ALP-POS-ce760d3f-2

> <SimilarityPheSA>
0.6534

> <Postera series>
3-aminopyridine-like

> <PDB_code>
Mpro-x12659

> <Approach>
DGM_focussed_RL

> <ID>
20210618_341

> <SimilarityPheSA_2>
0.747

> <OPTIBRIUM.logD>
1.29742

> <OPTIBRIUM.BBB category>
-

> <OPTIBRIUM.logP>
0.922021

> <OPTIBRIUM.P-gp category>
yes

> <OPTIBRIUM.logS>
3.59186

> <OPTIBRIUM.HIA category>
+

> <OPTIBRIUM.PPB90 category>
high

> <OPTIBRIUM.2D6 affinity category>
low

> <OPTIBRIUM.hERG pIC50>
5.30206

> <OPTIBRIUM.2C9 pKi>
5.37275

> <OPTIBRIUM.BBB log([brain]:[blood])>
-0.495724

> <OPTIBRIUM.logS @ pH7.4>
3.0265

$$$$
Compound 342_1_10
haSeeSAR  07122114523D 1   1.00000     0.00000     0
SeeSAR 11.0.2 hazemaj
 51 54  0  0  0  0            999 V2000
   17.6296  -19.9253    2.6039 Cl  0  0  0  0  0  0  0  0  0  0  0  0
   16.5046  -18.7892    1.8204 C   0  0  0  0  0  0  0  0  0  0  0  0
   16.3163  -18.8355    0.4433 C   0  0  0  0  0  0  0  0  0  0  0  0
   15.8193  -17.8620    2.5969 C   0  0  0  0  0  0  0  0  0  0  0  0
   17.2067  -20.0318   -0.5282 Cl  0  0  0  0  0  0  0  0  0  0  0  0
   15.4384  -17.9535   -0.1791 C   0  0  0  0  0  0  0  0  0  0  0  0
   14.9436  -16.9828    1.9698 C   0  0  0  0  0  0  0  0  0  0  0  0
   14.7510  -17.0230    0.5930 C   0  0  0  0  0  0  0  0  0  0  0  0
   14.1853  -15.9623    2.8033 C   0  0  0  0  0  0  0  0  0  0  0  0
   15.1154  -14.9232    3.2719 N   0  3  2  0  0  0  0  0  0  0  0  0
   14.3930  -13.7358    3.7292 C   0  0  0  0  0  0  0  0  0  0  0  0
   15.8959  -14.3829    2.1556 C   0  0  0  0  0  0  0  0  0  0  0  0
   15.3886  -12.6614    3.6694 N   0  0  0  0  0  0  0  0  0  0  0  0
   16.3877  -13.0480    2.6712 C   0  0  0  0  0  0  0  0  0  0  0  0
   15.3918  -11.4964    4.4478 C   0  0  0  0  0  0  0  0  0  0  0  0
   16.1755  -10.5838    4.1868 O   0  0  0  0  0  0  0  0  0  0  0  0
   14.4740  -11.3661    5.5580 C   0  0  0  0  0  0  0  0  0  0  0  0
   14.8734  -11.6899    6.8532 C   0  0  0  0  0  0  0  0  0  0  0  0
   13.1836  -10.8917    5.3457 C   0  0  0  0  0  0  0  0  0  0  0  0
   13.9428  -11.5474    7.8735 C   0  0  0  0  0  0  0  0  0  0  0  0
   16.2886  -12.1746    7.1390 C   0  0  0  0  0  0  0  0  0  0  0  0
   12.3326  -10.7532    6.3730 N   0  0  0  0  0  0  0  0  0  0  0  0
   12.6613  -11.0622    7.6357 C   0  0  0  0  0  0  0  0  0  0  0  0
   14.2995  -11.9275    9.3007 C   0  0  0  0  0  0  0  0  0  0  0  0
   16.3771  -12.8688    8.4852 C   0  0  0  0  0  0  0  0  0  0  0  0
   15.7589  -11.9836    9.4804 N   0  3  2  0  0  0  0  0  0  0  0  0
   16.0932  -12.4993   10.8173 C   0  0  0  0  0  0  0  0  0  0  0  0
   15.9534  -17.8280    3.5872 H   0  0  0  0  0  0  0  0  0  0  0  0
   15.3033  -17.9882   -1.1692 H   0  0  0  0  0  0  0  0  0  0  0  0
   14.1179  -16.3826    0.1580 H   0  0  0  0  0  0  0  0  0  0  0  0
   13.7699  -16.4176    3.5908 H   0  0  0  0  0  0  0  0  0  0  0  0
   13.4696  -15.5420    2.2455 H   0  0  0  0  0  0  0  0  0  0  0  0
   14.0621  -13.8607    4.6645 H   0  0  0  0  0  0  0  0  0  0  0  0
   13.6204  -13.5369    3.1260 H   0  0  0  0  0  0  0  0  0  0  0  0
   15.3223  -14.2623    1.3454 H   0  0  0  0  0  0  0  0  0  0  0  0
   16.6637  -14.9840    1.9340 H   0  0  0  0  0  0  0  0  0  0  0  0
   16.4301  -12.3757    1.9322 H   0  0  0  0  0  0  0  0  0  0  0  0
   17.2911  -13.1402    3.0901 H   0  0  0  0  0  0  0  0  0  0  0  0
   12.8884  -10.6523    4.4207 H   0  0  0  0  0  0  0  0  0  0  0  0
   16.9077  -11.3893    7.1371 H   0  0  0  0  0  0  0  0  0  0  0  0
   16.5628  -12.8170    6.4235 H   0  0  0  0  0  0  0  0  0  0  0  0
   12.0061  -10.9474    8.3825 H   0  0  0  0  0  0  0  0  0  0  0  0
   13.9094  -12.8246    9.5077 H   0  0  0  0  0  0  0  0  0  0  0  0
   13.9187  -11.2460    9.9258 H   0  0  0  0  0  0  0  0  0  0  0  0
   17.3346  -13.0330    8.7224 H   0  0  0  0  0  0  0  0  0  0  0  0
   15.8877  -13.7403    8.4527 H   0  0  0  0  0  0  0  0  0  0  0  0
   17.0871  -12.5312   10.9233 H   0  0  0  0  0  0  0  0  0  0  0  0
   15.7028  -11.8974   11.5140 H   0  0  0  0  0  0  0  0  0  0  0  0
   15.7169  -13.4197   10.9232 H   0  0  0  0  0  0  0  0  0  0  0  0
   15.7148  -15.2766    3.9902 H   0  0  0  0  0  0  0  0  0  0  0  0
   16.1370  -11.0634    9.3802 H   0  0  0  0  0  0  0  0  0  0  0  0
  1  2  1  0  0  0  0
  2  3  2  0  0  0  0
  2  4  1  0  0  0  0
  3  5  1  0  0  0  0
  3  6  1  0  0  0  0
  4  7  2  0  0  0  0
  6  8  2  0  0  0  0
  7  9  1  0  0  0  0
  9 10  1  0  0  0  0
 10 11  1  0  0  0  0
 10 12  1  0  0  0  0
 11 13  1  0  0  0  0
 12 14  1  0  0  0  0
 13 15  1  0  0  0  0
 15 16  2  0  0  0  0
 15 17  1  0  0  0  0
 17 18  2  0  0  0  0
 17 19  1  0  0  0  0
 18 20  1  0  0  0  0
 18 21  1  0  0  0  0
 19 22  2  0  0  0  0
 20 23  2  0  0  0  0
 20 24  1  0  0  0  0
 21 25  1  0  0  0  0
 24 26  1  0  0  0  0
 26 27  1  0  0  0  0
  7  8  1  0  0  0  0
 13 14  1  0  0  0  0
 22 23  1  0  0  0  0
 25 26  1  0  0  0  0
  4 28  1  0  0  0  0
  6 29  1  0  0  0  0
  8 30  1  0  0  0  0
  9 31  1  0  0  0  0
  9 32  1  0  0  0  0
 11 33  1  0  0  0  0
 11 34  1  0  0  0  0
 12 35  1  0  0  0  0
 12 36  1  0  0  0  0
 14 37  1  0  0  0  0
 14 38  1  0  0  0  0
 19 39  1  0  0  0  0
 21 40  1  0  0  0  0
 21 41  1  0  0  0  0
 23 42  1  0  0  0  0
 24 43  1  0  0  0  0
 24 44  1  0  0  0  0
 25 45  1  0  0  0  0
 25 46  1  0  0  0  0
 27 47  1  0  0  0  0
 27 48  1  0  0  0  0
 27 49  1  0  0  0  0
 10 50  1  0  0  0  0
 26 51  1  0  0  0  0
M  CHG  2  10   1  26   1
M  END
> <BIOSOLVEIT.HYDE_ESTIMATED_AFFINITY_LOWER_BOUNDARY [nM]>
2399662750.000159

> <BIOSOLVEIT.HYDE_ESTIMATED_AFFINITY_UPPER_BOUNDARY [nM]>
238420682141.543152

> <BIOSOLVEIT.HYDE_LIGAND_EFFICIENCY range: ++, +, 0, -, -->
--

> <BIOSOLVEIT.HYDE_LIGAND_LIPOPHILIC_EFFICIENCY range: ++, +, 0, -, -->
--

> <BIOSOLVEIT.INTER_CLASH range: red, yellow, green>
green

> <BIOSOLVEIT.INTRA_CLASH range: red, yellow, green>
green

> <BIOSOLVEIT.LOGP>
0.4576

> <BIOSOLVEIT.MOLECULAR WEIGHT>
407.343

> <BIOSOLVEIT.MOLECULE_CHECKSUM>
Ny44Njk5OzA=

> <BIOSOLVEIT.TORSION_QUALITY range: red, yellow, green, not rotatable>
green

> <BIOSOLVEIT.TPSA>
42.08

> <BIOSOLVEIT.SEESAR_FAVORITE>
favorite

> <smc_score>
0.625

> <QED_score>
0.786

> <distance>
0.68

> <SimilarityPheSA_1>
0.653

> <Smiles>
CN1CCc2c(cncc2C(=O)N2CCN(Cc3ccc(Cl)c(Cl)c3)C2)C1

> <Similarity_SkelSpheres>
0.629

> <Cluster No>
171.0

> <QueryID>
ALP-POS-ce760d3f-2

> <SimilarityPheSA>
0.6534

> <Postera series>
3-aminopyridine-like

> <PDB_code>
Mpro-x12659

> <Approach>
DGM_focussed_RL

> <ID>
20210618_341

> <SimilarityPheSA_2>
0.747

> <OPTIBRIUM.logD>
1.29742

> <OPTIBRIUM.BBB category>
-

> <OPTIBRIUM.logP>
0.922021

> <OPTIBRIUM.P-gp category>
yes

> <OPTIBRIUM.logS>
3.59186

> <OPTIBRIUM.HIA category>
+

> <OPTIBRIUM.PPB90 category>
high

> <OPTIBRIUM.2D6 affinity category>
low

> <OPTIBRIUM.hERG pIC50>
5.30206

> <OPTIBRIUM.2C9 pKi>
5.37275

> <OPTIBRIUM.BBB log([brain]:[blood])>
-0.495724

> <OPTIBRIUM.logS @ pH7.4>
3.0265

$$$$
Compound 476_1_3
haSeeSAR  07122114523D 1   1.00000     0.00000     0
SeeSAR 11.0.2 hazemaj
 36 38  0  0  0  0            999 V2000
   21.3142   -5.8921    3.4725 Cl  0  0  0  0  0  0  0  0  0  0  0  0
   20.8058   -7.5908    3.6267 C   0  0  0  0  0  0  0  0  0  0  0  0
   19.6682   -8.0323    2.9602 C   0  0  0  0  0  0  0  0  0  0  0  0
   21.5478   -8.4661    4.4126 C   0  0  0  0  0  0  0  0  0  0  0  0
   18.9659   -7.1870    2.2120 F   0  0  0  0  0  0  0  0  0  0  0  0
   19.2568   -9.3567    3.0715 C   0  0  0  0  0  0  0  0  0  0  0  0
   21.1339   -9.7894    4.5200 C   0  0  0  0  0  0  0  0  0  0  0  0
   19.9962  -10.2373    3.8554 C   0  0  0  0  0  0  0  0  0  0  0  0
   22.0913  -10.9014    5.5282 Cl  0  0  0  0  0  0  0  0  0  0  0  0
   19.5606  -11.6868    3.9871 C   0  0  0  0  0  0  0  0  0  0  0  0
   18.7044  -11.8475    5.2327 C   0  0  0  0  0  0  0  0  0  0  0  0
   17.3560  -12.2876    4.8469 N   0  0  0  0  0  0  0  0  0  0  0  0
   16.4364  -11.3940    4.5213 C   0  0  0  0  0  0  0  0  0  0  0  0
   16.7098  -10.1939    4.5413 O   0  0  0  0  0  0  0  0  0  0  0  0
   15.0420  -11.8491    4.1224 C   0  0  0  0  0  0  0  0  0  0  0  0
   14.0774  -11.4322    5.1508 N   0  0  0  0  0  0  0  0  0  0  0  0
   12.9158  -10.8745    4.9008 N   0  0  0  0  0  0  0  0  0  0  0  0
   14.2610  -11.5691    6.4968 C   0  0  0  0  0  0  0  0  0  0  0  0
   12.3106  -10.6299    5.9845 N   0  0  0  0  0  0  0  0  0  0  0  0
   15.2542  -12.0720    7.2473 N   0  0  0  0  0  0  0  0  0  0  0  0
   13.1070  -11.0447    7.0171 C   0  0  0  0  0  0  0  0  0  0  0  0
   15.1863  -12.0885    8.5863 C   0  0  0  0  0  0  0  0  0  0  0  0
   13.0307  -11.0577    8.4072 C   0  0  0  0  0  0  0  0  0  0  0  0
   14.0500  -11.5709    9.2026 C   0  0  0  0  0  0  0  0  0  0  0  0
   22.3658   -8.1490    4.8926 H   0  0  0  0  0  0  0  0  0  0  0  0
   18.4377   -9.6728    2.5927 H   0  0  0  0  0  0  0  0  0  0  0  0
   20.3681  -12.2722    4.0598 H   0  0  0  0  0  0  0  0  0  0  0  0
   19.0297  -11.9498    3.1814 H   0  0  0  0  0  0  0  0  0  0  0  0
   18.6450  -10.9716    5.7115 H   0  0  0  0  0  0  0  0  0  0  0  0
   19.1180  -12.5297    5.8356 H   0  0  0  0  0  0  0  0  0  0  0  0
   17.1337  -13.2625    4.8307 H   0  0  0  0  0  0  0  0  0  0  0  0
   15.0282  -12.8453    4.0368 H   0  0  0  0  0  0  0  0  0  0  0  0
   14.7944  -11.4358    3.2461 H   0  0  0  0  0  0  0  0  0  0  0  0
   15.9359  -12.4647    9.1310 H   0  0  0  0  0  0  0  0  0  0  0  0
   12.2146  -10.6852    8.8493 H   0  0  0  0  0  0  0  0  0  0  0  0
   13.9683  -11.5680   10.1993 H   0  0  0  0  0  0  0  0  0  0  0  0
  1  2  1  0  0  0  0
  2  3  2  0  0  0  0
  2  4  1  0  0  0  0
  3  5  1  0  0  0  0
  3  6  1  0  0  0  0
  4  7  2  0  0  0  0
  6  8  2  0  0  0  0
  7  9  1  0  0  0  0
  8 10  1  0  0  0  0
 10 11  1  0  0  0  0
 11 12  1  0  0  0  0
 12 13  1  0  0  0  0
 13 14  2  0  0  0  0
 13 15  1  0  0  0  0
 15 16  1  0  0  0  0
 16 17  1  0  0  0  0
 16 18  1  0  0  0  0
 17 19  2  0  0  0  0
 18 20  2  0  0  0  0
 18 21  1  0  0  0  0
 20 22  1  0  0  0  0
 21 23  2  0  0  0  0
 22 24  2  0  0  0  0
  7  8  1  0  0  0  0
 19 21  1  0  0  0  0
 23 24  1  0  0  0  0
  4 25  1  0  0  0  0
  6 26  1  0  0  0  0
 10 27  1  0  0  0  0
 10 28  1  0  0  0  0
 11 29  1  0  0  0  0
 11 30  1  0  0  0  0
 12 31  1  0  0  0  0
 15 32  1  0  0  0  0
 15 33  1  0  0  0  0
 22 34  1  0  0  0  0
 23 35  1  0  0  0  0
 24 36  1  0  0  0  0
M  END
> <BIOSOLVEIT.HYDE_ESTIMATED_AFFINITY_LOWER_BOUNDARY [nM]>
101453719.989424

> <BIOSOLVEIT.HYDE_ESTIMATED_AFFINITY_UPPER_BOUNDARY [nM]>
10080026922.814081

> <BIOSOLVEIT.HYDE_LIGAND_EFFICIENCY range: ++, +, 0, -, -->
--

> <BIOSOLVEIT.HYDE_LIGAND_LIPOPHILIC_EFFICIENCY range: ++, +, 0, -, -->
--

> <BIOSOLVEIT.INTER_CLASH range: red, yellow, green>
green

> <BIOSOLVEIT.INTRA_CLASH range: red, yellow, green>
green

> <BIOSOLVEIT.LOGP>
2.6311

> <BIOSOLVEIT.MOLECULAR WEIGHT>
368.198

> <BIOSOLVEIT.MOLECULE_CHECKSUM>
MC4wMjc3Njg1OzA=

> <BIOSOLVEIT.TORSION_QUALITY range: red, yellow, green, not rotatable>
red

> <BIOSOLVEIT.TPSA>
72.7

> <BIOSOLVEIT.SEESAR_FAVORITE>
favorite

> <smc_score>
0.75

> <QED_score>
0.703

> <distance>
0.7

> <SimilarityPheSA_1>
0.67

> <Smiles>
O=C(Cn1nnc2cccnc21)NCCc1cc(F)c(Cl)cc1Cl

> <Similarity_SkelSpheres>
0.637

> <Cluster No>
250.0

> <QueryID>
JAN-GHE-5a013bed-2

> <SimilarityPheSA>
0.6697

> <Postera series>
3-aminopyridine-like

> <PDB_code>
Mpro-x10466

> <Approach>
DGM_focussed_RL

> <ID>
20210618_475

> <SimilarityPheSA_2>
0.772

> <OPTIBRIUM.logD>
2.62946

> <OPTIBRIUM.BBB category>
-

> <OPTIBRIUM.logP>
2.62946

> <OPTIBRIUM.P-gp category>
no

> <OPTIBRIUM.logS>
1.37463

> <OPTIBRIUM.HIA category>
+

> <OPTIBRIUM.PPB90 category>
high

> <OPTIBRIUM.2D6 affinity category>
medium

> <OPTIBRIUM.hERG pIC50>
5.16838

> <OPTIBRIUM.2C9 pKi>
5.36864

> <OPTIBRIUM.BBB log([brain]:[blood])>
-0.495869

> <OPTIBRIUM.logS @ pH7.4>
1.37463

$$$$
Compound 529_1_1
haSeeSAR  07122114523D 1   1.00000     0.00000     0
SeeSAR 11.0.2 hazemaj
 44 46  0  0  0  0            999 V2000
   20.9879   -5.8419    3.3450 Cl  0  0  0  0  0  0  0  0  0  0  0  0
   20.9987   -7.6214    3.3973 C   0  0  0  0  0  0  0  0  0  0  0  0
   22.1673   -8.3005    3.7248 C   0  0  0  0  0  0  0  0  0  0  0  0
   19.8317   -8.3203    3.1105 C   0  0  0  0  0  0  0  0  0  0  0  0
   23.6483   -7.3822    4.0868 Cl  0  0  0  0  0  0  0  0  0  0  0  0
   22.1865   -9.6910    3.7703 C   0  0  0  0  0  0  0  0  0  0  0  0
   19.8567   -9.7096    3.1570 C   0  0  0  0  0  0  0  0  0  0  0  0
   21.0219  -10.3952    3.4831 C   0  0  0  0  0  0  0  0  0  0  0  0
   18.5902  -10.4899    2.8469 C   0  0  0  0  0  0  0  0  0  0  0  0
   17.7411  -10.5976    4.1031 C   0  0  0  0  0  0  0  0  0  0  0  0
   16.6682   -9.9983    4.1740 O   0  0  0  0  0  0  0  0  0  0  0  0
   18.1553  -11.3353    5.1202 N   0  0  0  0  0  0  0  0  0  0  0  0
   17.3726  -11.4346    6.2781 C   0  0  0  0  0  0  0  0  0  0  0  0
   17.6974  -10.9392    7.5563 C   0  0  0  0  0  0  0  0  0  0  0  0
   16.1551  -12.0296    6.3897 C   0  0  0  0  0  0  0  0  0  0  0  0
   16.7132  -11.2428    8.3679 N   0  0  0  0  0  0  0  0  0  0  0  0
   18.9698  -10.1898    7.9145 C   0  0  0  0  0  0  0  0  0  0  0  0
   15.7834  -11.8859    7.6913 N   0  0  0  0  0  0  0  0  0  0  0  0
   14.5143  -12.3928    8.2348 C   0  0  0  0  0  0  0  0  0  0  0  0
   13.3894  -12.1004    7.2529 C   0  0  0  0  0  0  0  0  0  0  0  0
   12.5355  -11.0462    7.2590 C   0  0  0  0  0  0  0  0  0  0  0  0
   13.0087  -12.8675    6.1376 C   0  0  0  0  0  0  0  0  0  0  0  0
   11.7187  -11.1704    6.2402 O   0  0  0  0  0  0  0  0  0  0  0  0
   12.5297   -9.9161    8.2763 C   0  0  0  0  0  0  0  0  0  0  0  0
   11.9989  -12.2300    5.6037 N   0  0  0  0  0  0  0  0  0  0  0  0
   13.6505  -14.1645    5.6719 C   0  0  0  0  0  0  0  0  0  0  0  0
   18.9906   -7.8332    2.8754 H   0  0  0  0  0  0  0  0  0  0  0  0
   23.0272  -10.1781    4.0066 H   0  0  0  0  0  0  0  0  0  0  0  0
   21.0225  -11.3948    3.5112 H   0  0  0  0  0  0  0  0  0  0  0  0
   18.8327  -11.4065    2.5290 H   0  0  0  0  0  0  0  0  0  0  0  0
   18.0727  -10.0161    2.1345 H   0  0  0  0  0  0  0  0  0  0  0  0
   19.0268  -11.8222    5.0627 H   0  0  0  0  0  0  0  0  0  0  0  0
   15.6376  -12.4811    5.6629 H   0  0  0  0  0  0  0  0  0  0  0  0
   18.9533   -9.9497    8.8850 H   0  0  0  0  0  0  0  0  0  0  0  0
   19.7623  -10.7706    7.7282 H   0  0  0  0  0  0  0  0  0  0  0  0
   19.0312   -9.3561    7.3657 H   0  0  0  0  0  0  0  0  0  0  0  0
   14.3214  -11.9423    9.1064 H   0  0  0  0  0  0  0  0  0  0  0  0
   14.5836  -13.3801    8.3779 H   0  0  0  0  0  0  0  0  0  0  0  0
   11.8006   -9.2694    8.0519 H   0  0  0  0  0  0  0  0  0  0  0  0
   12.3730  -10.2911    9.1901 H   0  0  0  0  0  0  0  0  0  0  0  0
   13.4114   -9.4448    8.2560 H   0  0  0  0  0  0  0  0  0  0  0  0
   13.1798  -14.4942    4.8535 H   0  0  0  0  0  0  0  0  0  0  0  0
   14.6141  -14.0022    5.4597 H   0  0  0  0  0  0  0  0  0  0  0  0
   13.5796  -14.8504    6.3962 H   0  0  0  0  0  0  0  0  0  0  0  0
  1  2  1  0  0  0  0
  2  3  2  0  0  0  0
  2  4  1  0  0  0  0
  3  5  1  0  0  0  0
  3  6  1  0  0  0  0
  4  7  2  0  0  0  0
  6  8  2  0  0  0  0
  7  9  1  0  0  0  0
  9 10  1  0  0  0  0
 10 11  2  0  0  0  0
 10 12  1  0  0  0  0
 12 13  1  0  0  0  0
 13 14  1  0  0  0  0
 13 15  2  0  0  0  0
 14 16  2  0  0  0  0
 14 17  1  0  0  0  0
 15 18  1  0  0  0  0
 18 19  1  0  0  0  0
 19 20  1  0  0  0  0
 20 21  2  0  0  0  0
 20 22  1  0  0  0  0
 21 23  1  0  0  0  0
 21 24  1  0  0  0  0
 22 25  2  0  0  0  0
 22 26  1  0  0  0  0
  7  8  1  0  0  0  0
 16 18  1  0  0  0  0
 23 25  1  0  0  0  0
  4 27  1  0  0  0  0
  6 28  1  0  0  0  0
  8 29  1  0  0  0  0
  9 30  1  0  0  0  0
  9 31  1  0  0  0  0
 12 32  1  0  0  0  0
 15 33  1  0  0  0  0
 17 34  1  0  0  0  0
 17 35  1  0  0  0  0
 17 36  1  0  0  0  0
 19 37  1  0  0  0  0
 19 38  1  0  0  0  0
 24 39  1  0  0  0  0
 24 40  1  0  0  0  0
 24 41  1  0  0  0  0
 26 42  1  0  0  0  0
 26 43  1  0  0  0  0
 26 44  1  0  0  0  0
M  END
> <BIOSOLVEIT.HYDE_ESTIMATED_AFFINITY_LOWER_BOUNDARY [nM]>
10442276512.937082

> <BIOSOLVEIT.HYDE_ESTIMATED_AFFINITY_UPPER_BOUNDARY [nM]>
1037501911185.189819

> <BIOSOLVEIT.HYDE_LIGAND_EFFICIENCY range: ++, +, 0, -, -->
--

> <BIOSOLVEIT.HYDE_LIGAND_LIPOPHILIC_EFFICIENCY range: ++, +, 0, -, -->
--

> <BIOSOLVEIT.INTER_CLASH range: red, yellow, green>
green

> <BIOSOLVEIT.INTRA_CLASH range: red, yellow, green>
green

> <BIOSOLVEIT.LOGP>
4.33266

> <BIOSOLVEIT.MOLECULAR WEIGHT>
393.272

> <BIOSOLVEIT.MOLECULE_CHECKSUM>
MTEuNTE1Mzsw

> <BIOSOLVEIT.TORSION_QUALITY range: red, yellow, green, not rotatable>
green

> <BIOSOLVEIT.TPSA>
72.95

> <BIOSOLVEIT.SEESAR_FAVORITE>
favorite

> <smc_score>
0.563

> <QED_score>
0.7

> <distance>
0.597

> <SimilarityPheSA_1>
0.658

> <Smiles>
Cc1nn(Cc2c(C)noc2C)cc1NC(=O)Cc1ccc(Cl)c(Cl)c1

> <Similarity_SkelSpheres>
0.65

> <Cluster No>
283.0

> <QueryID>
MAT-POS-bb423b95-1

> <SimilarityPheSA>
0.6578

> <Postera series>
3-aminopyridine-like

> <PDB_code>
Mpro-x11542

> <Approach>
DGM_focussed_RL

> <ID>
20210618_528

> <SimilarityPheSA_2>
0.671

> <OPTIBRIUM.logD>
4.81391

> <OPTIBRIUM.BBB category>
-

> <OPTIBRIUM.logP>
4.81391

> <OPTIBRIUM.P-gp category>
no

> <OPTIBRIUM.logS>
0.682435

> <OPTIBRIUM.HIA category>
+

> <OPTIBRIUM.PPB90 category>
high

> <OPTIBRIUM.2D6 affinity category>
medium

> <OPTIBRIUM.hERG pIC50>
4.73958

> <OPTIBRIUM.2C9 pKi>
5.50541

> <OPTIBRIUM.BBB log([brain]:[blood])>
-0.114694

> <OPTIBRIUM.logS @ pH7.4>
0.682435

$$$$
Compound 547_1_1
haSeeSAR  07122114523D 1   1.00000     0.00000     0
SeeSAR 11.0.2 hazemaj
 38 40  0  0  0  0            999 V2000
   23.3176   -7.8205    3.7450 Cl  0  0  0  0  0  0  0  0  0  0  0  0
   21.9296   -8.9031    4.0062 C   0  0  0  0  0  0  0  0  0  0  0  0
   20.6404   -8.3952    3.9028 C   0  0  0  0  0  0  0  0  0  0  0  0
   22.1134  -10.2452    4.3131 C   0  0  0  0  0  0  0  0  0  0  0  0
   20.3725   -6.6798    3.5149 Cl  0  0  0  0  0  0  0  0  0  0  0  0
   19.5321   -9.2088    4.1013 C   0  0  0  0  0  0  0  0  0  0  0  0
   21.0121  -11.0578    4.5100 C   0  0  0  0  0  0  0  0  0  0  0  0
   19.7388  -10.5499    4.4061 C   0  0  0  0  0  0  0  0  0  0  0  0
   20.9556  -12.3642    4.8256 O   0  0  0  0  0  0  0  0  0  0  0  0
   18.7747  -11.6776    4.6894 C   0  0  1  0  0  0  0  0  0  0  0  0
   19.7251  -12.5431    5.4912 C   0  0  0  0  0  0  0  0  0  0  0  0
   17.5500  -11.2374    5.4768 C   0  0  0  0  0  0  0  0  0  0  0  0
   18.3280  -12.3737    3.4119 C   0  0  0  0  0  0  0  0  0  0  0  0
   16.8573  -10.3057    5.0674 O   0  0  0  0  0  0  0  0  0  0  0  0
   17.2294  -11.8555    6.6017 N   0  0  0  0  0  0  0  0  0  0  0  0
   16.0458  -11.4300    7.3626 C   0  0  0  0  0  0  0  0  0  0  0  0
   14.9351  -12.4523    7.1855 C   0  0  0  0  0  0  0  0  0  0  0  0
   13.6358  -11.7637    7.1510 N   0  0  0  0  0  0  0  0  0  0  0  0
   12.8438  -11.5370    8.1713 N   0  0  0  0  0  0  0  0  0  0  0  0
   13.0244  -11.2469    6.0583 C   0  0  0  0  0  0  0  0  0  0  0  0
   11.8090  -10.9200    7.7818 N   0  0  0  0  0  0  0  0  0  0  0  0
   11.8937  -10.7354    6.4833 N   0  0  0  0  0  0  0  0  0  0  0  0
   13.5433  -11.2604    4.6290 C   0  0  0  0  0  0  0  0  0  0  0  0
   23.0366  -10.6215    4.3913 H   0  0  0  0  0  0  0  0  0  0  0  0
   18.6062   -8.8383    4.0266 H   0  0  0  0  0  0  0  0  0  0  0  0
   19.7811  -12.2317    6.4399 H   0  0  0  0  0  0  0  0  0  0  0  0
   19.4417  -13.5018    5.4713 H   0  0  0  0  0  0  0  0  0  0  0  0
   17.6927  -13.1117    3.6391 H   0  0  0  0  0  0  0  0  0  0  0  0
   17.8724  -11.7136    2.8146 H   0  0  0  0  0  0  0  0  0  0  0  0
   19.1255  -12.7529    2.9426 H   0  0  0  0  0  0  0  0  0  0  0  0
   17.7922  -12.6123    6.9342 H   0  0  0  0  0  0  0  0  0  0  0  0
   15.7364  -10.5401    7.0275 H   0  0  0  0  0  0  0  0  0  0  0  0
   16.2809  -11.3578    8.3320 H   0  0  0  0  0  0  0  0  0  0  0  0
   14.9504  -13.0970    7.9498 H   0  0  0  0  0  0  0  0  0  0  0  0
   15.0723  -12.9485    6.3282 H   0  0  0  0  0  0  0  0  0  0  0  0
   12.8827  -10.8071    4.0303 H   0  0  0  0  0  0  0  0  0  0  0  0
   14.4176  -10.7769    4.5873 H   0  0  0  0  0  0  0  0  0  0  0  0
   13.6705  -12.2059    4.3294 H   0  0  0  0  0  0  0  0  0  0  0  0
  1  2  1  0  0  0  0
  2  3  2  0  0  0  0
  2  4  1  0  0  0  0
  3  5  1  0  0  0  0
  3  6  1  0  0  0  0
  4  7  2  0  0  0  0
  6  8  2  0  0  0  0
  7  9  1  0  0  0  0
  8 10  1  0  0  0  0
  9 11  1  0  0  0  0
 10 12  1  0  0  0  0
 10 13  1  0  0  0  0
 12 14  2  0  0  0  0
 12 15  1  0  0  0  0
 15 16  1  0  0  0  0
 16 17  1  0  0  0  0
 17 18  1  0  0  0  0
 18 19  1  0  0  0  0
 18 20  1  0  0  0  0
 19 21  2  0  0  0  0
 20 22  2  0  0  0  0
 20 23  1  0  0  0  0
  7  8  1  0  0  0  0
 10 11  1  0  0  0  0
 21 22  1  0  0  0  0
  4 24  1  0  0  0  0
  6 25  1  0  0  0  0
 11 26  1  0  0  0  0
 11 27  1  0  0  0  0
 13 28  1  0  0  0  0
 13 29  1  0  0  0  0
 13 30  1  0  0  0  0
 15 31  1  0  0  0  0
 16 32  1  0  0  0  0
 16 33  1  0  0  0  0
 17 34  1  0  0  0  0
 17 35  1  0  0  0  0
 23 36  1  0  0  0  0
 23 37  1  0  0  0  0
 23 38  1  0  0  0  0
M  END
> <BIOSOLVEIT.HYDE_ESTIMATED_AFFINITY_LOWER_BOUNDARY [nM]>
464769005.366247

> <BIOSOLVEIT.HYDE_ESTIMATED_AFFINITY_UPPER_BOUNDARY [nM]>
46177548614.970917

> <BIOSOLVEIT.HYDE_LIGAND_EFFICIENCY range: ++, +, 0, -, -->
--

> <BIOSOLVEIT.HYDE_LIGAND_LIPOPHILIC_EFFICIENCY range: ++, +, 0, -, -->
--

> <BIOSOLVEIT.INTER_CLASH range: red, yellow, green>
green

> <BIOSOLVEIT.INTRA_CLASH range: red, yellow, green>
green

> <BIOSOLVEIT.LOGP>
1.75482

> <BIOSOLVEIT.MOLECULAR WEIGHT>
356.212

> <BIOSOLVEIT.MOLECULE_CHECKSUM>
My44MDA1OTsw

> <BIOSOLVEIT.TORSION_QUALITY range: red, yellow, green, not rotatable>
yellow

> <BIOSOLVEIT.TPSA>
81.93

> <BIOSOLVEIT.SEESAR_FAVORITE>
favorite

> <smc_score>
0.938

> <QED_score>
0.903

> <distance>
0.691

> <SimilarityPheSA_1>
0.658

> <Smiles>
Cc1nnnn1CCNC(=O)C1(C)COc2cc(Cl)c(Cl)cc21

> <Similarity_SkelSpheres>
0.573

> <Cluster No>
293.0

> <QueryID>
JAN-GHE-5a013bed-2

> <SimilarityPheSA>
0.658

> <Postera series>
3-aminopyridine-like

> <PDB_code>
Mpro-x10466

> <Approach>
DGM_focussed_RL

> <ID>
20210618_546

> <SimilarityPheSA_2>
0.734

> <OPTIBRIUM.logD>
1.68264

> <OPTIBRIUM.BBB category>
-

> <OPTIBRIUM.logP>
1.68264

> <OPTIBRIUM.P-gp category>
no

> <OPTIBRIUM.logS>
2.84542

> <OPTIBRIUM.HIA category>
+

> <OPTIBRIUM.PPB90 category>
low

> <OPTIBRIUM.2D6 affinity category>
low

> <OPTIBRIUM.hERG pIC50>
4.26444

> <OPTIBRIUM.2C9 pKi>
5.06566

> <OPTIBRIUM.BBB log([brain]:[blood])>
-0.451187

> <OPTIBRIUM.logS @ pH7.4>
2.84542

$$$$
Compound 397_1_01
haSeeSAR  07122114523D 1   1.00000     0.00000     0
SeeSAR 11.0.2 hazemaj
 53 56  0  0  0  0            999 V2000
   22.6947  -10.7473    5.3153 Cl  0  0  0  0  0  0  0  0  0  0  0  0
   21.2100  -10.3942    4.3987 C   0  0  0  0  0  0  0  0  0  0  0  0
   20.3302  -11.4277    4.0944 C   0  0  0  0  0  0  0  0  0  0  0  0
   20.9463   -9.0890    3.9962 C   0  0  0  0  0  0  0  0  0  0  0  0
   20.6048  -12.6881    4.4945 O   0  0  0  0  0  0  0  0  0  0  0  0
   19.1720  -11.1448    3.3783 C   0  0  0  0  0  0  0  0  0  0  0  0
   19.7824   -8.8288    3.2804 C   0  0  0  0  0  0  0  0  0  0  0  0
   20.1786  -13.1359    5.7729 C   0  0  0  0  0  0  0  0  0  0  0  0
   18.8882   -9.8471    2.9659 C   0  0  0  0  0  0  0  0  0  0  0  0
   18.1973  -12.2608    3.0375 C   0  0  0  0  0  0  0  0  0  0  0  0
   19.4354   -7.1620    2.7612 Cl  0  0  0  0  0  0  0  0  0  0  0  0
   16.9590  -11.6817    2.4970 N   0  0  0  0  0  0  0  0  0  0  0  0
   16.0280  -11.2259    3.3190 C   0  0  0  0  0  0  0  0  0  0  0  0
   16.7551  -11.6091    1.0430 C   0  0  0  0  0  0  0  0  0  0  0  0
   16.2989  -10.3317    4.1206 O   0  0  0  0  0  0  0  0  0  0  0  0
   14.6238  -11.8062    3.2737 C   0  0  0  0  0  0  0  0  0  0  0  0
   17.6868  -12.5871    0.3521 C   0  0  0  0  0  0  0  0  0  0  0  0
   13.9151  -11.4754    4.5228 N   0  0  0  0  0  0  0  0  0  0  0  0
   17.2746  -12.8717   -1.0748 C   0  0  0  0  0  0  0  0  0  0  0  0
   18.8023  -11.8563   -0.3642 C   0  0  0  0  0  0  0  0  0  0  0  0
   12.8923  -10.6704    4.6499 N   0  0  0  0  0  0  0  0  0  0  0  0
   14.2046  -11.9369    5.7712 C   0  0  0  0  0  0  0  0  0  0  0  0
   18.6488  -12.8064   -1.3945 O   0  0  0  0  0  0  0  0  0  0  0  0
   12.5022  -10.5837    5.8517 N   0  0  0  0  0  0  0  0  0  0  0  0
   13.3196  -11.3704    6.6227 C   0  0  0  0  0  0  0  0  0  0  0  0
   15.2854  -12.8544    6.3070 C   0  0  0  0  0  0  0  0  0  0  0  0
   13.4475  -11.6767    8.1077 C   0  0  0  0  0  0  0  0  0  0  0  0
   15.9022  -12.1495    7.5073 C   0  0  0  0  0  0  0  0  0  0  0  0
   14.9196  -11.5289    8.4906 C   0  0  0  0  0  0  0  0  0  0  0  0
   21.5829   -8.3502    4.2177 H   0  0  0  0  0  0  0  0  0  0  0  0
   20.4633  -14.0853    5.9055 H   0  0  0  0  0  0  0  0  0  0  0  0
   20.5902  -12.5624    6.4813 H   0  0  0  0  0  0  0  0  0  0  0  0
   19.1822  -13.0753    5.8321 H   0  0  0  0  0  0  0  0  0  0  0  0
   18.0540   -9.6490    2.4512 H   0  0  0  0  0  0  0  0  0  0  0  0
   17.9877  -12.7841    3.8635 H   0  0  0  0  0  0  0  0  0  0  0  0
   18.6082  -12.8654    2.3551 H   0  0  0  0  0  0  0  0  0  0  0  0
   16.9504  -10.6812    0.7249 H   0  0  0  0  0  0  0  0  0  0  0  0
   15.8070  -11.8427    0.8273 H   0  0  0  0  0  0  0  0  0  0  0  0
   14.6768  -12.7997    3.1736 H   0  0  0  0  0  0  0  0  0  0  0  0
   14.1280  -11.4187    2.4965 H   0  0  0  0  0  0  0  0  0  0  0  0
   17.9631  -13.3817    0.8927 H   0  0  0  0  0  0  0  0  0  0  0  0
   16.7103  -12.1632   -1.4986 H   0  0  0  0  0  0  0  0  0  0  0  0
   16.8514  -13.7660   -1.2197 H   0  0  0  0  0  0  0  0  0  0  0  0
   19.6871  -11.8802    0.1010 H   0  0  0  0  0  0  0  0  0  0  0  0
   18.5883  -10.9150   -0.6253 H   0  0  0  0  0  0  0  0  0  0  0  0
   15.9807  -13.0139    5.6062 H   0  0  0  0  0  0  0  0  0  0  0  0
   14.8880  -13.7282    6.5874 H   0  0  0  0  0  0  0  0  0  0  0  0
   13.1408  -12.6110    8.2899 H   0  0  0  0  0  0  0  0  0  0  0  0
   12.8924  -11.0346    8.6364 H   0  0  0  0  0  0  0  0  0  0  0  0
   16.4938  -11.4201    7.1636 H   0  0  0  0  0  0  0  0  0  0  0  0
   16.4534  -12.8187    8.0058 H   0  0  0  0  0  0  0  0  0  0  0  0
   15.0543  -11.9639    9.3809 H   0  0  0  0  0  0  0  0  0  0  0  0
   15.1257  -10.5530    8.5619 H   0  0  0  0  0  0  0  0  0  0  0  0
  1  2  1  0  0  0  0
  2  3  2  0  0  0  0
  2  4  1  0  0  0  0
  3  5  1  0  0  0  0
  3  6  1  0  0  0  0
  4  7  2  0  0  0  0
  5  8  1  0  0  0  0
  6  9  2  0  0  0  0
  6 10  1  0  0  0  0
  7 11  1  0  0  0  0
 10 12  1  0  0  0  0
 12 13  1  0  0  0  0
 12 14  1  0  0  0  0
 13 15  2  0  0  0  0
 13 16  1  0  0  0  0
 14 17  1  0  0  0  0
 16 18  1  0  0  0  0
 17 19  1  0  0  0  0
 17 20  1  0  0  0  0
 18 21  1  0  0  0  0
 18 22  1  0  0  0  0
 19 23  1  0  0  0  0
 21 24  2  0  0  0  0
 22 25  2  0  0  0  0
 22 26  1  0  0  0  0
 25 27  1  0  0  0  0
 26 28  1  0  0  0  0
 27 29  1  0  0  0  0
  7  9  1  0  0  0  0
 20 23  1  0  0  0  0
 24 25  1  0  0  0  0
 28 29  1  0  0  0  0
  4 30  1  0  0  0  0
  8 31  1  0  0  0  0
  8 32  1  0  0  0  0
  8 33  1  0  0  0  0
  9 34  1  0  0  0  0
 10 35  1  0  0  0  0
 10 36  1  0  0  0  0
 14 37  1  0  0  0  0
 14 38  1  0  0  0  0
 16 39  1  0  0  0  0
 16 40  1  0  0  0  0
 17 41  1  0  0  0  0
 19 42  1  0  0  0  0
 19 43  1  0  0  0  0
 20 44  1  0  0  0  0
 20 45  1  0  0  0  0
 26 46  1  0  0  0  0
 26 47  1  0  0  0  0
 27 48  1  0  0  0  0
 27 49  1  0  0  0  0
 28 50  1  0  0  0  0
 28 51  1  0  0  0  0
 29 52  1  0  0  0  0
 29 53  1  0  0  0  0
M  END
> <BIOSOLVEIT.HYDE_ESTIMATED_AFFINITY_LOWER_BOUNDARY [nM]>
16923409.102848

> <BIOSOLVEIT.HYDE_ESTIMATED_AFFINITY_UPPER_BOUNDARY [nM]>
1681440753.481330

> <BIOSOLVEIT.HYDE_LIGAND_EFFICIENCY range: ++, +, 0, -, -->
--

> <BIOSOLVEIT.HYDE_LIGAND_LIPOPHILIC_EFFICIENCY range: ++, +, 0, -, -->
--

> <BIOSOLVEIT.INTER_CLASH range: red, yellow, green>
green

> <BIOSOLVEIT.INTRA_CLASH range: red, yellow, green>
green

> <BIOSOLVEIT.LOGP>
3.1475

> <BIOSOLVEIT.MOLECULAR WEIGHT>
439.341

> <BIOSOLVEIT.MOLECULE_CHECKSUM>
LTQuNDExODE7MC4xNTIxMzE=

> <BIOSOLVEIT.TORSION_QUALITY range: red, yellow, green, not rotatable>
red

> <BIOSOLVEIT.TPSA>
69.48

> <BIOSOLVEIT.SEESAR_FAVORITE>
favorite

> <smc_score>
0.625

> <QED_score>
0.663

> <distance>
0.719

> <SimilarityPheSA_1>
0.649

> <Smiles>
COc1c(Cl)cc(Cl)cc1CN(CC1COC1)C(=O)Cn1nnc2c1CCCC2

> <Similarity_SkelSpheres>
0.591

> <Cluster No>
201.0

> <QueryID>
ALP-POS-87c86d55-1

> <SimilarityPheSA>
0.6488

> <Postera series>
3-aminopyridine-like

> <PDB_code>
Mpro-x12143

> <Approach>
DGM_focussed_RL

> <ID>
20210618_396

> <SimilarityPheSA_2>
0.757

> <OPTIBRIUM.logD>
2.78098

> <OPTIBRIUM.BBB category>
-

> <OPTIBRIUM.logP>
2.78098

> <OPTIBRIUM.P-gp category>
yes

> <OPTIBRIUM.logS>
2.6045

> <OPTIBRIUM.HIA category>
+

> <OPTIBRIUM.PPB90 category>
high

> <OPTIBRIUM.2D6 affinity category>
medium

> <OPTIBRIUM.hERG pIC50>
5.36574

> <OPTIBRIUM.2C9 pKi>
5.06201

> <OPTIBRIUM.BBB log([brain]:[blood])>
-0.554118

> <OPTIBRIUM.logS @ pH7.4>
2.6045

$$$$
Compound 397_1_02
haSeeSAR  07122114523D 1   1.00000     0.00000     0
SeeSAR 11.0.2 hazemaj
 53 56  0  0  0  0            999 V2000
   22.6722  -10.8234    5.4588 Cl  0  0  0  0  0  0  0  0  0  0  0  0
   21.2180  -10.4380    4.5072 C   0  0  0  0  0  0  0  0  0  0  0  0
   20.3488  -11.4598    4.1392 C   0  0  0  0  0  0  0  0  0  0  0  0
   20.9671   -9.1196    4.1412 C   0  0  0  0  0  0  0  0  0  0  0  0
   20.6107  -12.7333    4.5047 O   0  0  0  0  0  0  0  0  0  0  0  0
   19.2144  -11.1516    3.3960 C   0  0  0  0  0  0  0  0  0  0  0  0
   19.8268   -8.8342    3.3973 C   0  0  0  0  0  0  0  0  0  0  0  0
   20.1415  -13.2249    5.7516 C   0  0  0  0  0  0  0  0  0  0  0  0
   18.9437   -9.8404    3.0193 C   0  0  0  0  0  0  0  0  0  0  0  0
   18.2516  -12.2545    2.9859 C   0  0  0  0  0  0  0  0  0  0  0  0
   19.4964   -7.1503    2.9243 Cl  0  0  0  0  0  0  0  0  0  0  0  0
   17.0197  -11.6560    2.4521 N   0  0  0  0  0  0  0  0  0  0  0  0
   16.0830  -11.2215    3.2792 C   0  0  0  0  0  0  0  0  0  0  0  0
   16.8283  -11.5403    0.9991 C   0  0  0  0  0  0  0  0  0  0  0  0
   16.3400  -10.3267    4.0846 O   0  0  0  0  0  0  0  0  0  0  0  0
   14.6895  -11.8271    3.2351 C   0  0  0  0  0  0  0  0  0  0  0  0
   18.1798  -11.5399    0.3095 C   0  0  0  0  0  0  0  0  0  0  0  0
   13.9656  -11.4845    4.4722 N   0  0  0  0  0  0  0  0  0  0  0  0
   18.0336  -11.2695   -1.1648 C   0  0  0  0  0  0  0  0  0  0  0  0
   18.5310  -12.8974   -0.2470 C   0  0  0  0  0  0  0  0  0  0  0  0
   12.9474  -10.6710    4.5805 N   0  0  0  0  0  0  0  0  0  0  0  0
   14.2337  -11.9418    5.7269 C   0  0  0  0  0  0  0  0  0  0  0  0
   19.0477  -12.2351   -1.3733 O   0  0  0  0  0  0  0  0  0  0  0  0
   12.5408  -10.5751    5.7762 N   0  0  0  0  0  0  0  0  0  0  0  0
   13.3410  -11.3641    6.5628 C   0  0  0  0  0  0  0  0  0  0  0  0
   15.2996  -12.8647    6.2828 C   0  0  0  0  0  0  0  0  0  0  0  0
   13.4453  -11.6637    8.0509 C   0  0  0  0  0  0  0  0  0  0  0  0
   15.9046  -12.1584    7.4882 C   0  0  0  0  0  0  0  0  0  0  0  0
   14.9129  -11.5253    8.4542 C   0  0  0  0  0  0  0  0  0  0  0  0
   21.5958   -8.3893    4.4083 H   0  0  0  0  0  0  0  0  0  0  0  0
   20.4223  -14.1784    5.8610 H   0  0  0  0  0  0  0  0  0  0  0  0
   20.5282  -12.6764    6.4930 H   0  0  0  0  0  0  0  0  0  0  0  0
   19.1436  -13.1660    5.7789 H   0  0  0  0  0  0  0  0  0  0  0  0
   18.1266   -9.6242    2.4848 H   0  0  0  0  0  0  0  0  0  0  0  0
   18.0308  -12.8175    3.7823 H   0  0  0  0  0  0  0  0  0  0  0  0
   18.6773  -12.8241    2.2827 H   0  0  0  0  0  0  0  0  0  0  0  0
   16.3487  -10.6873    0.7930 H   0  0  0  0  0  0  0  0  0  0  0  0
   16.2870  -12.3146    0.6715 H   0  0  0  0  0  0  0  0  0  0  0  0
   14.7606  -12.8214    3.1549 H   0  0  0  0  0  0  0  0  0  0  0  0
   14.1930  -11.4637    2.4468 H   0  0  0  0  0  0  0  0  0  0  0  0
   18.9150  -11.0503    0.7781 H   0  0  0  0  0  0  0  0  0  0  0  0
   18.2766  -10.3410   -1.4454 H   0  0  0  0  0  0  0  0  0  0  0  0
   17.1418  -11.5107   -1.5474 H   0  0  0  0  0  0  0  0  0  0  0  0
   17.7454  -13.4873   -0.4341 H   0  0  0  0  0  0  0  0  0  0  0  0
   19.2087  -13.4039    0.2862 H   0  0  0  0  0  0  0  0  0  0  0  0
   16.0036  -13.0332    5.5928 H   0  0  0  0  0  0  0  0  0  0  0  0
   14.8914  -13.7340    6.5618 H   0  0  0  0  0  0  0  0  0  0  0  0
   13.1288  -12.5946    8.2335 H   0  0  0  0  0  0  0  0  0  0  0  0
   12.8877  -11.0147    8.5685 H   0  0  0  0  0  0  0  0  0  0  0  0
   16.5066  -11.4354    7.1494 H   0  0  0  0  0  0  0  0  0  0  0  0
   16.4434  -12.8293    7.9979 H   0  0  0  0  0  0  0  0  0  0  0  0
   15.0315  -11.9567    9.3485 H   0  0  0  0  0  0  0  0  0  0  0  0
   15.1255  -10.5506    8.5235 H   0  0  0  0  0  0  0  0  0  0  0  0
  1  2  1  0  0  0  0
  2  3  2  0  0  0  0
  2  4  1  0  0  0  0
  3  5  1  0  0  0  0
  3  6  1  0  0  0  0
  4  7  2  0  0  0  0
  5  8  1  0  0  0  0
  6  9  2  0  0  0  0
  6 10  1  0  0  0  0
  7 11  1  0  0  0  0
 10 12  1  0  0  0  0
 12 13  1  0  0  0  0
 12 14  1  0  0  0  0
 13 15  2  0  0  0  0
 13 16  1  0  0  0  0
 14 17  1  0  0  0  0
 16 18  1  0  0  0  0
 17 19  1  0  0  0  0
 17 20  1  0  0  0  0
 18 21  1  0  0  0  0
 18 22  1  0  0  0  0
 19 23  1  0  0  0  0
 21 24  2  0  0  0  0
 22 25  2  0  0  0  0
 22 26  1  0  0  0  0
 25 27  1  0  0  0  0
 26 28  1  0  0  0  0
 27 29  1  0  0  0  0
  7  9  1  0  0  0  0
 20 23  1  0  0  0  0
 24 25  1  0  0  0  0
 28 29  1  0  0  0  0
  4 30  1  0  0  0  0
  8 31  1  0  0  0  0
  8 32  1  0  0  0  0
  8 33  1  0  0  0  0
  9 34  1  0  0  0  0
 10 35  1  0  0  0  0
 10 36  1  0  0  0  0
 14 37  1  0  0  0  0
 14 38  1  0  0  0  0
 16 39  1  0  0  0  0
 16 40  1  0  0  0  0
 17 41  1  0  0  0  0
 19 42  1  0  0  0  0
 19 43  1  0  0  0  0
 20 44  1  0  0  0  0
 20 45  1  0  0  0  0
 26 46  1  0  0  0  0
 26 47  1  0  0  0  0
 27 48  1  0  0  0  0
 27 49  1  0  0  0  0
 28 50  1  0  0  0  0
 28 51  1  0  0  0  0
 29 52  1  0  0  0  0
 29 53  1  0  0  0  0
M  END
> <BIOSOLVEIT.HYDE_ESTIMATED_AFFINITY_LOWER_BOUNDARY [nM]>
7044656.706675

> <BIOSOLVEIT.HYDE_ESTIMATED_AFFINITY_UPPER_BOUNDARY [nM]>
699928295.114927

> <BIOSOLVEIT.HYDE_LIGAND_EFFICIENCY range: ++, +, 0, -, -->
--

> <BIOSOLVEIT.HYDE_LIGAND_LIPOPHILIC_EFFICIENCY range: ++, +, 0, -, -->
--

> <BIOSOLVEIT.INTER_CLASH range: red, yellow, green>
green

> <BIOSOLVEIT.INTRA_CLASH range: red, yellow, green>
yellow

> <BIOSOLVEIT.LOGP>
3.1475

> <BIOSOLVEIT.MOLECULAR WEIGHT>
439.341

> <BIOSOLVEIT.MOLECULE_CHECKSUM>
LTYuNTg0NDQ7MC4yMjcwNQ==

> <BIOSOLVEIT.TORSION_QUALITY range: red, yellow, green, not rotatable>
red

> <BIOSOLVEIT.TPSA>
69.48

> <BIOSOLVEIT.SEESAR_FAVORITE>
favorite

> <smc_score>
0.625

> <QED_score>
0.663

> <distance>
0.719

> <SimilarityPheSA_1>
0.649

> <Smiles>
COc1c(Cl)cc(Cl)cc1CN(CC1COC1)C(=O)Cn1nnc2c1CCCC2

> <Similarity_SkelSpheres>
0.591

> <Cluster No>
201.0

> <QueryID>
ALP-POS-87c86d55-1

> <SimilarityPheSA>
0.6488

> <Postera series>
3-aminopyridine-like

> <PDB_code>
Mpro-x12143

> <Approach>
DGM_focussed_RL

> <ID>
20210618_396

> <SimilarityPheSA_2>
0.757

> <OPTIBRIUM.logD>
2.78098

> <OPTIBRIUM.BBB category>
-

> <OPTIBRIUM.logP>
2.78098

> <OPTIBRIUM.P-gp category>
yes

> <OPTIBRIUM.logS>
2.6045

> <OPTIBRIUM.HIA category>
+

> <OPTIBRIUM.PPB90 category>
high

> <OPTIBRIUM.2D6 affinity category>
medium

> <OPTIBRIUM.hERG pIC50>
5.36574

> <OPTIBRIUM.2C9 pKi>
5.06201

> <OPTIBRIUM.BBB log([brain]:[blood])>
-0.554118

> <OPTIBRIUM.logS @ pH7.4>
2.6045

$$$$
Compound 397_1_03
haSeeSAR  07122114523D 1   1.00000     0.00000     0
SeeSAR 11.0.2 hazemaj
 53 56  0  0  0  0            999 V2000
   22.3389  -10.9634    5.3761 Cl  0  0  0  0  0  0  0  0  0  0  0  0
   20.9412  -10.5398    4.3584 C   0  0  0  0  0  0  0  0  0  0  0  0
   20.0656  -11.5389    3.9461 C   0  0  0  0  0  0  0  0  0  0  0  0
   20.7402   -9.2146    3.9860 C   0  0  0  0  0  0  0  0  0  0  0  0
   20.2787  -12.8194    4.3186 O   0  0  0  0  0  0  0  0  0  0  0  0
   18.9755  -11.2009    3.1513 C   0  0  0  0  0  0  0  0  0  0  0  0
   19.6438   -8.8992    3.1902 C   0  0  0  0  0  0  0  0  0  0  0  0
   19.7272  -13.3065    5.5332 C   0  0  0  0  0  0  0  0  0  0  0  0
   18.7551   -9.8824    2.7672 C   0  0  0  0  0  0  0  0  0  0  0  0
   18.0064  -12.2786    2.6921 C   0  0  0  0  0  0  0  0  0  0  0  0
   19.3774   -7.2065    2.7086 Cl  0  0  0  0  0  0  0  0  0  0  0  0
   16.7353  -11.6571    2.2935 N   0  0  0  0  0  0  0  0  0  0  0  0
   15.8812  -11.2471    3.2169 C   0  0  0  0  0  0  0  0  0  0  0  0
   16.4131  -11.4911    0.8689 C   0  0  0  0  0  0  0  0  0  0  0  0
   16.2153  -10.3773    4.0215 O   0  0  0  0  0  0  0  0  0  0  0  0
   14.4874  -11.8499    3.2844 C   0  0  0  0  0  0  0  0  0  0  0  0
   17.4055  -12.2752    0.0311 C   0  0  0  0  0  0  0  0  0  0  0  0
   13.8558  -11.4847    4.5649 N   0  0  0  0  0  0  0  0  0  0  0  0
   16.7067  -12.9707   -1.1170 C   0  0  0  0  0  0  0  0  0  0  0  0
   18.0674  -11.4424   -1.0424 C   0  0  0  0  0  0  0  0  0  0  0  0
   12.8677  -10.6452    4.7360 N   0  0  0  0  0  0  0  0  0  0  0  0
   14.1947  -11.9442    5.8015 C   0  0  0  0  0  0  0  0  0  0  0  0
   17.3592  -12.1354   -2.0481 O   0  0  0  0  0  0  0  0  0  0  0  0
   12.5437  -10.5349    5.9554 N   0  0  0  0  0  0  0  0  0  0  0  0
   13.3741  -11.3411    6.6916 C   0  0  0  0  0  0  0  0  0  0  0  0
   15.2715  -12.8920    6.2905 C   0  0  0  0  0  0  0  0  0  0  0  0
   13.5690  -11.6381    8.1711 C   0  0  0  0  0  0  0  0  0  0  0  0
   15.9725  -12.1971    7.4497 C   0  0  0  0  0  0  0  0  0  0  0  0
   15.0631  -11.5356    8.4758 C   0  0  0  0  0  0  0  0  0  0  0  0
   21.3734   -8.5007    4.2853 H   0  0  0  0  0  0  0  0  0  0  0  0
   19.9809  -14.2664    5.6531 H   0  0  0  0  0  0  0  0  0  0  0  0
   20.0816  -12.7699    6.2991 H   0  0  0  0  0  0  0  0  0  0  0  0
   18.7309  -13.2263    5.5027 H   0  0  0  0  0  0  0  0  0  0  0  0
   17.9697   -9.6447    2.1956 H   0  0  0  0  0  0  0  0  0  0  0  0
   17.8430  -12.9211    3.4407 H   0  0  0  0  0  0  0  0  0  0  0  0
   18.3971  -12.7679    1.9122 H   0  0  0  0  0  0  0  0  0  0  0  0
   16.4641  -10.5223    0.6262 H   0  0  0  0  0  0  0  0  0  0  0  0
   15.4885  -11.8300    0.6945 H   0  0  0  0  0  0  0  0  0  0  0  0
   14.5513  -12.8455    3.2162 H   0  0  0  0  0  0  0  0  0  0  0  0
   13.9355  -11.4986    2.5283 H   0  0  0  0  0  0  0  0  0  0  0  0
   18.0292  -12.8556    0.5549 H   0  0  0  0  0  0  0  0  0  0  0  0
   15.7120  -12.8678   -1.1079 H   0  0  0  0  0  0  0  0  0  0  0  0
   16.9408  -13.9387   -1.2073 H   0  0  0  0  0  0  0  0  0  0  0  0
   19.0593  -11.5594   -1.0919 H   0  0  0  0  0  0  0  0  0  0  0  0
   17.8489  -10.4680   -0.9915 H   0  0  0  0  0  0  0  0  0  0  0  0
   15.9239  -13.0807    5.5565 H   0  0  0  0  0  0  0  0  0  0  0  0
   14.8610  -13.7496    6.6004 H   0  0  0  0  0  0  0  0  0  0  0  0
   13.2420  -12.5600    8.3789 H   0  0  0  0  0  0  0  0  0  0  0  0
   13.0633  -10.9733    8.7209 H   0  0  0  0  0  0  0  0  0  0  0  0
   16.5688  -11.4908    7.0681 H   0  0  0  0  0  0  0  0  0  0  0  0
   16.5268  -12.8796    7.9261 H   0  0  0  0  0  0  0  0  0  0  0  0
   15.2297  -11.9667    9.3625 H   0  0  0  0  0  0  0  0  0  0  0  0
   15.3042  -10.5664    8.5259 H   0  0  0  0  0  0  0  0  0  0  0  0
  1  2  1  0  0  0  0
  2  3  2  0  0  0  0
  2  4  1  0  0  0  0
  3  5  1  0  0  0  0
  3  6  1  0  0  0  0
  4  7  2  0  0  0  0
  5  8  1  0  0  0  0
  6  9  2  0  0  0  0
  6 10  1  0  0  0  0
  7 11  1  0  0  0  0
 10 12  1  0  0  0  0
 12 13  1  0  0  0  0
 12 14  1  0  0  0  0
 13 15  2  0  0  0  0
 13 16  1  0  0  0  0
 14 17  1  0  0  0  0
 16 18  1  0  0  0  0
 17 19  1  0  0  0  0
 17 20  1  0  0  0  0
 18 21  1  0  0  0  0
 18 22  1  0  0  0  0
 19 23  1  0  0  0  0
 21 24  2  0  0  0  0
 22 25  2  0  0  0  0
 22 26  1  0  0  0  0
 25 27  1  0  0  0  0
 26 28  1  0  0  0  0
 27 29  1  0  0  0  0
  7  9  1  0  0  0  0
 20 23  1  0  0  0  0
 24 25  1  0  0  0  0
 28 29  1  0  0  0  0
  4 30  1  0  0  0  0
  8 31  1  0  0  0  0
  8 32  1  0  0  0  0
  8 33  1  0  0  0  0
  9 34  1  0  0  0  0
 10 35  1  0  0  0  0
 10 36  1  0  0  0  0
 14 37  1  0  0  0  0
 14 38  1  0  0  0  0
 16 39  1  0  0  0  0
 16 40  1  0  0  0  0
 17 41  1  0  0  0  0
 19 42  1  0  0  0  0
 19 43  1  0  0  0  0
 20 44  1  0  0  0  0
 20 45  1  0  0  0  0
 26 46  1  0  0  0  0
 26 47  1  0  0  0  0
 27 48  1  0  0  0  0
 27 49  1  0  0  0  0
 28 50  1  0  0  0  0
 28 51  1  0  0  0  0
 29 52  1  0  0  0  0
 29 53  1  0  0  0  0
M  END
> <BIOSOLVEIT.HYDE_ESTIMATED_AFFINITY_LOWER_BOUNDARY [nM]>
3138476.430103

> <BIOSOLVEIT.HYDE_ESTIMATED_AFFINITY_UPPER_BOUNDARY [nM]>
311826189.471907

> <BIOSOLVEIT.HYDE_LIGAND_EFFICIENCY range: ++, +, 0, -, -->
--

> <BIOSOLVEIT.HYDE_LIGAND_LIPOPHILIC_EFFICIENCY range: ++, +, 0, -, -->
--

> <BIOSOLVEIT.INTER_CLASH range: red, yellow, green>
green

> <BIOSOLVEIT.INTRA_CLASH range: red, yellow, green>
green

> <BIOSOLVEIT.LOGP>
3.1475

> <BIOSOLVEIT.MOLECULAR WEIGHT>
439.341

> <BIOSOLVEIT.MOLECULE_CHECKSUM>
LTguNTg4NzU7MC4yOTYxNjQ=

> <BIOSOLVEIT.TORSION_QUALITY range: red, yellow, green, not rotatable>
red

> <BIOSOLVEIT.TPSA>
69.48

> <BIOSOLVEIT.SEESAR_FAVORITE>
favorite

> <smc_score>
0.625

> <QED_score>
0.663

> <distance>
0.719

> <SimilarityPheSA_1>
0.649

> <Smiles>
COc1c(Cl)cc(Cl)cc1CN(CC1COC1)C(=O)Cn1nnc2c1CCCC2

> <Similarity_SkelSpheres>
0.591

> <Cluster No>
201.0

> <QueryID>
ALP-POS-87c86d55-1

> <SimilarityPheSA>
0.6488

> <Postera series>
3-aminopyridine-like

> <PDB_code>
Mpro-x12143

> <Approach>
DGM_focussed_RL

> <ID>
20210618_396

> <SimilarityPheSA_2>
0.757

> <OPTIBRIUM.logD>
2.78098

> <OPTIBRIUM.BBB category>
-

> <OPTIBRIUM.logP>
2.78098

> <OPTIBRIUM.P-gp category>
yes

> <OPTIBRIUM.logS>
2.6045

> <OPTIBRIUM.HIA category>
+

> <OPTIBRIUM.PPB90 category>
high

> <OPTIBRIUM.2D6 affinity category>
medium

> <OPTIBRIUM.hERG pIC50>
5.36574

> <OPTIBRIUM.2C9 pKi>
5.06201

> <OPTIBRIUM.BBB log([brain]:[blood])>
-0.554118

> <OPTIBRIUM.logS @ pH7.4>
2.6045

$$$$
Compound 397_1_04
haSeeSAR  07122114523D 1   1.00000     0.00000     0
SeeSAR 11.0.2 hazemaj
 53 56  0  0  0  0            999 V2000
   22.6490  -10.9196    5.4688 Cl  0  0  0  0  0  0  0  0  0  0  0  0
   21.2137  -10.4896    4.5077 C   0  0  0  0  0  0  0  0  0  0  0  0
   20.3221  -11.4859    4.1237 C   0  0  0  0  0  0  0  0  0  0  0  0
   20.9997   -9.1623    4.1504 C   0  0  0  0  0  0  0  0  0  0  0  0
   20.5483  -12.7686    4.4809 O   0  0  0  0  0  0  0  0  0  0  0  0
   19.2027  -11.1430    3.3731 C   0  0  0  0  0  0  0  0  0  0  0  0
   19.8738   -8.8420    3.3989 C   0  0  0  0  0  0  0  0  0  0  0  0
   20.0534  -13.2588    5.7184 C   0  0  0  0  0  0  0  0  0  0  0  0
   18.9688   -9.8223    3.0048 C   0  0  0  0  0  0  0  0  0  0  0  0
   18.2159  -12.2176    2.9454 C   0  0  0  0  0  0  0  0  0  0  0  0
   19.5906   -7.1465    2.9370 Cl  0  0  0  0  0  0  0  0  0  0  0  0
   16.9877  -11.5838    2.4448 N   0  0  0  0  0  0  0  0  0  0  0  0
   16.0532  -11.1893    3.2942 C   0  0  0  0  0  0  0  0  0  0  0  0
   16.7976  -11.3883    1.0002 C   0  0  0  0  0  0  0  0  0  0  0  0
   16.2991  -10.3019    4.1111 O   0  0  0  0  0  0  0  0  0  0  0  0
   14.6760  -11.8318    3.2614 C   0  0  0  0  0  0  0  0  0  0  0  0
   17.0225  -12.7033    0.2779 C   0  0  0  0  0  0  0  0  0  0  0  0
   13.9464  -11.4931    4.4962 N   0  0  0  0  0  0  0  0  0  0  0  0
   18.3552  -12.7133   -0.4232 C   0  0  0  0  0  0  0  0  0  0  0  0
   16.5683  -12.6436   -1.1595 C   0  0  0  0  0  0  0  0  0  0  0  0
   12.9205  -10.6889    4.6006 N   0  0  0  0  0  0  0  0  0  0  0  0
   14.2162  -11.9450    5.7525 C   0  0  0  0  0  0  0  0  0  0  0  0
   17.7132  -13.3888   -1.4890 O   0  0  0  0  0  0  0  0  0  0  0  0
   12.5106  -10.5940    5.7952 N   0  0  0  0  0  0  0  0  0  0  0  0
   13.3164  -11.3738    6.5853 C   0  0  0  0  0  0  0  0  0  0  0  0
   15.2894  -12.8567    6.3127 C   0  0  0  0  0  0  0  0  0  0  0  0
   13.4204  -11.6689    8.0743 C   0  0  0  0  0  0  0  0  0  0  0  0
   15.8854  -12.1421    7.5177 C   0  0  0  0  0  0  0  0  0  0  0  0
   14.8858  -11.5160    8.4802 C   0  0  0  0  0  0  0  0  0  0  0  0
   21.6444   -8.4505    4.4291 H   0  0  0  0  0  0  0  0  0  0  0  0
   20.3091  -14.2199    5.8225 H   0  0  0  0  0  0  0  0  0  0  0  0
   20.4454  -12.7263    6.4686 H   0  0  0  0  0  0  0  0  0  0  0  0
   19.0570  -13.1752    5.7354 H   0  0  0  0  0  0  0  0  0  0  0  0
   18.1623   -9.5810    2.4650 H   0  0  0  0  0  0  0  0  0  0  0  0
   17.9956  -12.7988    3.7288 H   0  0  0  0  0  0  0  0  0  0  0  0
   18.6226  -12.7745    2.2212 H   0  0  0  0  0  0  0  0  0  0  0  0
   17.4514  -10.7088    0.6670 H   0  0  0  0  0  0  0  0  0  0  0  0
   15.8664  -11.0677    0.8269 H   0  0  0  0  0  0  0  0  0  0  0  0
   14.7730  -12.8248    3.1932 H   0  0  0  0  0  0  0  0  0  0  0  0
   14.1682  -11.4913    2.4701 H   0  0  0  0  0  0  0  0  0  0  0  0
   16.7826  -13.5322    0.7834 H   0  0  0  0  0  0  0  0  0  0  0  0
   19.0667  -13.2428    0.0389 H   0  0  0  0  0  0  0  0  0  0  0  0
   18.7116  -11.8085   -0.6563 H   0  0  0  0  0  0  0  0  0  0  0  0
   16.5428  -11.7238   -1.5508 H   0  0  0  0  0  0  0  0  0  0  0  0
   15.7018  -13.1079   -1.3426 H   0  0  0  0  0  0  0  0  0  0  0  0
   15.9964  -13.0203    5.6246 H   0  0  0  0  0  0  0  0  0  0  0  0
   14.8888  -13.7291    6.5929 H   0  0  0  0  0  0  0  0  0  0  0  0
   13.1122  -12.6024    8.2584 H   0  0  0  0  0  0  0  0  0  0  0  0
   12.8558  -11.0239    8.5892 H   0  0  0  0  0  0  0  0  0  0  0  0
   16.4814  -11.4143    7.1785 H   0  0  0  0  0  0  0  0  0  0  0  0
   16.4293  -12.8067    8.0301 H   0  0  0  0  0  0  0  0  0  0  0  0
   15.0066  -11.9442    9.3757 H   0  0  0  0  0  0  0  0  0  0  0  0
   15.0893  -10.5392    8.5477 H   0  0  0  0  0  0  0  0  0  0  0  0
  1  2  1  0  0  0  0
  2  3  2  0  0  0  0
  2  4  1  0  0  0  0
  3  5  1  0  0  0  0
  3  6  1  0  0  0  0
  4  7  2  0  0  0  0
  5  8  1  0  0  0  0
  6  9  2  0  0  0  0
  6 10  1  0  0  0  0
  7 11  1  0  0  0  0
 10 12  1  0  0  0  0
 12 13  1  0  0  0  0
 12 14  1  0  0  0  0
 13 15  2  0  0  0  0
 13 16  1  0  0  0  0
 14 17  1  0  0  0  0
 16 18  1  0  0  0  0
 17 19  1  0  0  0  0
 17 20  1  0  0  0  0
 18 21  1  0  0  0  0
 18 22  1  0  0  0  0
 19 23  1  0  0  0  0
 21 24  2  0  0  0  0
 22 25  2  0  0  0  0
 22 26  1  0  0  0  0
 25 27  1  0  0  0  0
 26 28  1  0  0  0  0
 27 29  1  0  0  0  0
  7  9  1  0  0  0  0
 20 23  1  0  0  0  0
 24 25  1  0  0  0  0
 28 29  1  0  0  0  0
  4 30  1  0  0  0  0
  8 31  1  0  0  0  0
  8 32  1  0  0  0  0
  8 33  1  0  0  0  0
  9 34  1  0  0  0  0
 10 35  1  0  0  0  0
 10 36  1  0  0  0  0
 14 37  1  0  0  0  0
 14 38  1  0  0  0  0
 16 39  1  0  0  0  0
 16 40  1  0  0  0  0
 17 41  1  0  0  0  0
 19 42  1  0  0  0  0
 19 43  1  0  0  0  0
 20 44  1  0  0  0  0
 20 45  1  0  0  0  0
 26 46  1  0  0  0  0
 26 47  1  0  0  0  0
 27 48  1  0  0  0  0
 27 49  1  0  0  0  0
 28 50  1  0  0  0  0
 28 51  1  0  0  0  0
 29 52  1  0  0  0  0
 29 53  1  0  0  0  0
M  END
> <BIOSOLVEIT.HYDE_ESTIMATED_AFFINITY_LOWER_BOUNDARY [nM]>
5904441.256769

> <BIOSOLVEIT.HYDE_ESTIMATED_AFFINITY_UPPER_BOUNDARY [nM]>
586641148.679536

> <BIOSOLVEIT.HYDE_LIGAND_EFFICIENCY range: ++, +, 0, -, -->
--

> <BIOSOLVEIT.HYDE_LIGAND_LIPOPHILIC_EFFICIENCY range: ++, +, 0, -, -->
--

> <BIOSOLVEIT.INTER_CLASH range: red, yellow, green>
green

> <BIOSOLVEIT.INTRA_CLASH range: red, yellow, green>
green

> <BIOSOLVEIT.LOGP>
3.1475

> <BIOSOLVEIT.MOLECULAR WEIGHT>
439.341

> <BIOSOLVEIT.MOLECULE_CHECKSUM>
LTcuMDIyMTM7MC4yNDIxNDI=

> <BIOSOLVEIT.TORSION_QUALITY range: red, yellow, green, not rotatable>
red

> <BIOSOLVEIT.TPSA>
69.48

> <BIOSOLVEIT.SEESAR_FAVORITE>
favorite

> <smc_score>
0.625

> <QED_score>
0.663

> <distance>
0.719

> <SimilarityPheSA_1>
0.649

> <Smiles>
COc1c(Cl)cc(Cl)cc1CN(CC1COC1)C(=O)Cn1nnc2c1CCCC2

> <Similarity_SkelSpheres>
0.591

> <Cluster No>
201.0

> <QueryID>
ALP-POS-87c86d55-1

> <SimilarityPheSA>
0.6488

> <Postera series>
3-aminopyridine-like

> <PDB_code>
Mpro-x12143

> <Approach>
DGM_focussed_RL

> <ID>
20210618_396

> <SimilarityPheSA_2>
0.757

> <OPTIBRIUM.logD>
2.78098

> <OPTIBRIUM.BBB category>
-

> <OPTIBRIUM.logP>
2.78098

> <OPTIBRIUM.P-gp category>
yes

> <OPTIBRIUM.logS>
2.6045

> <OPTIBRIUM.HIA category>
+

> <OPTIBRIUM.PPB90 category>
high

> <OPTIBRIUM.2D6 affinity category>
medium

> <OPTIBRIUM.hERG pIC50>
5.36574

> <OPTIBRIUM.2C9 pKi>
5.06201

> <OPTIBRIUM.BBB log([brain]:[blood])>
-0.554118

> <OPTIBRIUM.logS @ pH7.4>
2.6045

$$$$
Compound 397_1_05
haSeeSAR  07122114523D 1   1.00000     0.00000     0
SeeSAR 11.0.2 hazemaj
 53 56  0  0  0  0            999 V2000
   22.7914  -10.9736    5.5349 Cl  0  0  0  0  0  0  0  0  0  0  0  0
   21.3421  -10.5180    4.6072 C   0  0  0  0  0  0  0  0  0  0  0  0
   20.4368  -11.5018    4.2231 C   0  0  0  0  0  0  0  0  0  0  0  0
   21.1310   -9.1836    4.2758 C   0  0  0  0  0  0  0  0  0  0  0  0
   20.6603  -12.7917    4.5550 O   0  0  0  0  0  0  0  0  0  0  0  0
   19.3064  -11.1389    3.4988 C   0  0  0  0  0  0  0  0  0  0  0  0
   19.9941   -8.8432    3.5502 C   0  0  0  0  0  0  0  0  0  0  0  0
   20.1884  -13.2978    5.7951 C   0  0  0  0  0  0  0  0  0  0  0  0
   19.0752   -9.8107    3.1566 C   0  0  0  0  0  0  0  0  0  0  0  0
   18.3045  -12.1997    3.0714 C   0  0  0  0  0  0  0  0  0  0  0  0
   19.7145   -7.1384    3.1215 Cl  0  0  0  0  0  0  0  0  0  0  0  0
   17.1035  -11.5488    2.5285 N   0  0  0  0  0  0  0  0  0  0  0  0
   16.1362  -11.1599    3.3431 C   0  0  0  0  0  0  0  0  0  0  0  0
   16.9770  -11.3301    1.0803 C   0  0  0  0  0  0  0  0  0  0  0  0
   16.3426  -10.2610    4.1585 O   0  0  0  0  0  0  0  0  0  0  0  0
   14.7703  -11.8230    3.2723 C   0  0  0  0  0  0  0  0  0  0  0  0
   16.3910  -12.5697    0.4308 C   0  0  0  0  0  0  0  0  0  0  0  0
   13.9997  -11.4912    4.4839 N   0  0  0  0  0  0  0  0  0  0  0  0
   16.3328  -12.4625   -1.0765 C   0  0  0  0  0  0  0  0  0  0  0  0
   17.4794  -13.5629    0.0830 C   0  0  0  0  0  0  0  0  0  0  0  0
   12.9622  -10.6984    4.5559 N   0  0  0  0  0  0  0  0  0  0  0  0
   14.2363  -11.9386    5.7485 C   0  0  0  0  0  0  0  0  0  0  0  0
   16.7582  -13.8089   -1.1033 O   0  0  0  0  0  0  0  0  0  0  0  0
   12.5151  -10.6069    5.7374 N   0  0  0  0  0  0  0  0  0  0  0  0
   13.3053  -11.3766    6.5527 C   0  0  0  0  0  0  0  0  0  0  0  0
   15.3022  -12.8376    6.3423 C   0  0  0  0  0  0  0  0  0  0  0  0
   13.3674  -11.6690    8.0446 C   0  0  0  0  0  0  0  0  0  0  0  0
   15.8533  -12.1149    7.5638 C   0  0  0  0  0  0  0  0  0  0  0  0
   14.8180  -11.4991    8.4946 C   0  0  0  0  0  0  0  0  0  0  0  0
   21.7857   -8.4808    4.5544 H   0  0  0  0  0  0  0  0  0  0  0  0
   20.4386  -14.2624    5.8785 H   0  0  0  0  0  0  0  0  0  0  0  0
   20.6009  -12.7804    6.5449 H   0  0  0  0  0  0  0  0  0  0  0  0
   19.1933  -13.2069    5.8352 H   0  0  0  0  0  0  0  0  0  0  0  0
   18.2608   -9.5551    2.6355 H   0  0  0  0  0  0  0  0  0  0  0  0
   18.0526  -12.7580    3.8618 H   0  0  0  0  0  0  0  0  0  0  0  0
   18.7145  -12.7817    2.3691 H   0  0  0  0  0  0  0  0  0  0  0  0
   17.8794  -11.1448    0.6911 H   0  0  0  0  0  0  0  0  0  0  0  0
   16.3749  -10.5495    0.9124 H   0  0  0  0  0  0  0  0  0  0  0  0
   14.8839  -12.8146    3.2106 H   0  0  0  0  0  0  0  0  0  0  0  0
   14.2810  -11.4926    2.4652 H   0  0  0  0  0  0  0  0  0  0  0  0
   15.5786  -12.9504    0.8724 H   0  0  0  0  0  0  0  0  0  0  0  0
   16.9765  -11.8102   -1.4768 H   0  0  0  0  0  0  0  0  0  0  0  0
   15.4197  -12.3026   -1.4516 H   0  0  0  0  0  0  0  0  0  0  0  0
   17.5486  -14.3447    0.7026 H   0  0  0  0  0  0  0  0  0  0  0  0
   18.3859  -13.1628   -0.0515 H   0  0  0  0  0  0  0  0  0  0  0  0
   16.0315  -12.9939    5.6762 H   0  0  0  0  0  0  0  0  0  0  0  0
   14.9031  -13.7141    6.6114 H   0  0  0  0  0  0  0  0  0  0  0  0
   13.0642  -12.6056    8.2206 H   0  0  0  0  0  0  0  0  0  0  0  0
   12.7801  -11.0298    8.5412 H   0  0  0  0  0  0  0  0  0  0  0  0
   16.4511  -11.3809    7.2417 H   0  0  0  0  0  0  0  0  0  0  0  0
   16.3888  -12.7728    8.0933 H   0  0  0  0  0  0  0  0  0  0  0  0
   14.9163  -11.9250    9.3940 H   0  0  0  0  0  0  0  0  0  0  0  0
   15.0083  -10.5200    8.5669 H   0  0  0  0  0  0  0  0  0  0  0  0
  1  2  1  0  0  0  0
  2  3  2  0  0  0  0
  2  4  1  0  0  0  0
  3  5  1  0  0  0  0
  3  6  1  0  0  0  0
  4  7  2  0  0  0  0
  5  8  1  0  0  0  0
  6  9  2  0  0  0  0
  6 10  1  0  0  0  0
  7 11  1  0  0  0  0
 10 12  1  0  0  0  0
 12 13  1  0  0  0  0
 12 14  1  0  0  0  0
 13 15  2  0  0  0  0
 13 16  1  0  0  0  0
 14 17  1  0  0  0  0
 16 18  1  0  0  0  0
 17 19  1  0  0  0  0
 17 20  1  0  0  0  0
 18 21  1  0  0  0  0
 18 22  1  0  0  0  0
 19 23  1  0  0  0  0
 21 24  2  0  0  0  0
 22 25  2  0  0  0  0
 22 26  1  0  0  0  0
 25 27  1  0  0  0  0
 26 28  1  0  0  0  0
 27 29  1  0  0  0  0
  7  9  1  0  0  0  0
 20 23  1  0  0  0  0
 24 25  1  0  0  0  0
 28 29  1  0  0  0  0
  4 30  1  0  0  0  0
  8 31  1  0  0  0  0
  8 32  1  0  0  0  0
  8 33  1  0  0  0  0
  9 34  1  0  0  0  0
 10 35  1  0  0  0  0
 10 36  1  0  0  0  0
 14 37  1  0  0  0  0
 14 38  1  0  0  0  0
 16 39  1  0  0  0  0
 16 40  1  0  0  0  0
 17 41  1  0  0  0  0
 19 42  1  0  0  0  0
 19 43  1  0  0  0  0
 20 44  1  0  0  0  0
 20 45  1  0  0  0  0
 26 46  1  0  0  0  0
 26 47  1  0  0  0  0
 27 48  1  0  0  0  0
 27 49  1  0  0  0  0
 28 50  1  0  0  0  0
 28 51  1  0  0  0  0
 29 52  1  0  0  0  0
 29 53  1  0  0  0  0
M  END
> <BIOSOLVEIT.HYDE_ESTIMATED_AFFINITY_LOWER_BOUNDARY [nM]>
10728547.334319

> <BIOSOLVEIT.HYDE_ESTIMATED_AFFINITY_UPPER_BOUNDARY [nM]>
1065944609.856514

> <BIOSOLVEIT.HYDE_LIGAND_EFFICIENCY range: ++, +, 0, -, -->
--

> <BIOSOLVEIT.HYDE_LIGAND_LIPOPHILIC_EFFICIENCY range: ++, +, 0, -, -->
--

> <BIOSOLVEIT.INTER_CLASH range: red, yellow, green>
green

> <BIOSOLVEIT.INTRA_CLASH range: red, yellow, green>
green

> <BIOSOLVEIT.LOGP>
3.1475

> <BIOSOLVEIT.MOLECULAR WEIGHT>
439.341

> <BIOSOLVEIT.MOLECULE_CHECKSUM>
LTUuNTQxNjk7MC4xOTEwOTM=

> <BIOSOLVEIT.TORSION_QUALITY range: red, yellow, green, not rotatable>
yellow

> <BIOSOLVEIT.TPSA>
69.48

> <BIOSOLVEIT.SEESAR_FAVORITE>
favorite

> <smc_score>
0.625

> <QED_score>
0.663

> <distance>
0.719

> <SimilarityPheSA_1>
0.649

> <Smiles>
COc1c(Cl)cc(Cl)cc1CN(CC1COC1)C(=O)Cn1nnc2c1CCCC2

> <Similarity_SkelSpheres>
0.591

> <Cluster No>
201.0

> <QueryID>
ALP-POS-87c86d55-1

> <SimilarityPheSA>
0.6488

> <Postera series>
3-aminopyridine-like

> <PDB_code>
Mpro-x12143

> <Approach>
DGM_focussed_RL

> <ID>
20210618_396

> <SimilarityPheSA_2>
0.757

> <OPTIBRIUM.logD>
2.78098

> <OPTIBRIUM.BBB category>
-

> <OPTIBRIUM.logP>
2.78098

> <OPTIBRIUM.P-gp category>
yes

> <OPTIBRIUM.logS>
2.6045

> <OPTIBRIUM.HIA category>
+

> <OPTIBRIUM.PPB90 category>
high

> <OPTIBRIUM.2D6 affinity category>
medium

> <OPTIBRIUM.hERG pIC50>
5.36574

> <OPTIBRIUM.2C9 pKi>
5.06201

> <OPTIBRIUM.BBB log([brain]:[blood])>
-0.554118

> <OPTIBRIUM.logS @ pH7.4>
2.6045

$$$$
Compound 397_1_06
haSeeSAR  07122114523D 1   1.00000     0.00000     0
SeeSAR 11.0.2 hazemaj
 53 56  0  0  0  0            999 V2000
   22.5811  -10.7963    5.3175 Cl  0  0  0  0  0  0  0  0  0  0  0  0
   21.1169  -10.4281    4.3745 C   0  0  0  0  0  0  0  0  0  0  0  0
   20.2378  -11.4544    4.0447 C   0  0  0  0  0  0  0  0  0  0  0  0
   20.8682   -9.1183    3.9771 C   0  0  0  0  0  0  0  0  0  0  0  0
   20.4978  -12.7193    4.4402 O   0  0  0  0  0  0  0  0  0  0  0  0
   19.0956  -11.1596    3.3080 C   0  0  0  0  0  0  0  0  0  0  0  0
   19.7200   -8.8463    3.2404 C   0  0  0  0  0  0  0  0  0  0  0  0
   20.0400  -13.1760    5.7045 C   0  0  0  0  0  0  0  0  0  0  0  0
   18.8269   -9.8572    2.9002 C   0  0  0  0  0  0  0  0  0  0  0  0
   18.1220  -12.2676    2.9392 C   0  0  0  0  0  0  0  0  0  0  0  0
   19.3923   -7.1737    2.7275 Cl  0  0  0  0  0  0  0  0  0  0  0  0
   16.8711  -11.6757    2.4434 N   0  0  0  0  0  0  0  0  0  0  0  0
   15.9654  -11.2303    3.2988 C   0  0  0  0  0  0  0  0  0  0  0  0
   16.6264  -11.5786    0.9972 C   0  0  0  0  0  0  0  0  0  0  0  0
   16.2599  -10.3445    4.1014 O   0  0  0  0  0  0  0  0  0  0  0  0
   14.5612  -11.8122    3.2906 C   0  0  0  0  0  0  0  0  0  0  0  0
   17.1973  -12.8018    0.3044 C   0  0  0  0  0  0  0  0  0  0  0  0
   13.8814  -11.4728    4.5534 N   0  0  0  0  0  0  0  0  0  0  0  0
   16.3794  -14.0478    0.5600 C   0  0  0  0  0  0  0  0  0  0  0  0
   16.5940  -12.9729   -1.0734 C   0  0  0  0  0  0  0  0  0  0  0  0
   12.8691  -10.6579    4.7000 N   0  0  0  0  0  0  0  0  0  0  0  0
   14.1921  -11.9351    5.7964 C   0  0  0  0  0  0  0  0  0  0  0  0
   16.5812  -14.3565   -0.8032 O   0  0  0  0  0  0  0  0  0  0  0  0
   12.5046  -10.5656    5.9094 N   0  0  0  0  0  0  0  0  0  0  0  0
   13.3302  -11.3589    6.6649 C   0  0  0  0  0  0  0  0  0  0  0  0
   15.2749  -12.8620    6.3115 C   0  0  0  0  0  0  0  0  0  0  0  0
   13.4856  -11.6640    8.1474 C   0  0  0  0  0  0  0  0  0  0  0  0
   15.9229  -12.1611    7.4977 C   0  0  0  0  0  0  0  0  0  0  0  0
   14.9666  -11.5297    8.4998 C   0  0  0  0  0  0  0  0  0  0  0  0
   21.5041   -8.3848    4.2170 H   0  0  0  0  0  0  0  0  0  0  0  0
   20.3175  -14.1278    5.8356 H   0  0  0  0  0  0  0  0  0  0  0  0
   20.4374  -12.6104    6.4271 H   0  0  0  0  0  0  0  0  0  0  0  0
   19.0428  -13.1115    5.7411 H   0  0  0  0  0  0  0  0  0  0  0  0
   18.0042   -9.6506    2.3706 H   0  0  0  0  0  0  0  0  0  0  0  0
   17.9298  -12.8250    3.7468 H   0  0  0  0  0  0  0  0  0  0  0  0
   18.5247  -12.8415    2.2261 H   0  0  0  0  0  0  0  0  0  0  0  0
   17.0681  -10.7560    0.6388 H   0  0  0  0  0  0  0  0  0  0  0  0
   15.6420  -11.5288    0.8282 H   0  0  0  0  0  0  0  0  0  0  0  0
   14.6130  -12.8065    3.1967 H   0  0  0  0  0  0  0  0  0  0  0  0
   14.0470  -11.4311    2.5223 H   0  0  0  0  0  0  0  0  0  0  0  0
   18.1895  -12.9121    0.3625 H   0  0  0  0  0  0  0  0  0  0  0  0
   15.4275  -13.8805    0.8167 H   0  0  0  0  0  0  0  0  0  0  0  0
   16.7892  -14.6951    1.2028 H   0  0  0  0  0  0  0  0  0  0  0  0
   17.1880  -12.6977   -1.8294 H   0  0  0  0  0  0  0  0  0  0  0  0
   15.6912  -12.5592   -1.1913 H   0  0  0  0  0  0  0  0  0  0  0  0
   15.9542  -13.0292    5.5969 H   0  0  0  0  0  0  0  0  0  0  0  0
   14.8751  -13.7315    6.6015 H   0  0  0  0  0  0  0  0  0  0  0  0
   13.1738  -12.5950    8.3376 H   0  0  0  0  0  0  0  0  0  0  0  0
   12.9476  -11.0158    8.6863 H   0  0  0  0  0  0  0  0  0  0  0  0
   16.5141  -11.4380    7.1407 H   0  0  0  0  0  0  0  0  0  0  0  0
   16.4778  -12.8347    7.9859 H   0  0  0  0  0  0  0  0  0  0  0  0
   15.1154  -11.9646    9.3879 H   0  0  0  0  0  0  0  0  0  0  0  0
   15.1834  -10.5557    8.5652 H   0  0  0  0  0  0  0  0  0  0  0  0
  1  2  1  0  0  0  0
  2  3  2  0  0  0  0
  2  4  1  0  0  0  0
  3  5  1  0  0  0  0
  3  6  1  0  0  0  0
  4  7  2  0  0  0  0
  5  8  1  0  0  0  0
  6  9  2  0  0  0  0
  6 10  1  0  0  0  0
  7 11  1  0  0  0  0
 10 12  1  0  0  0  0
 12 13  1  0  0  0  0
 12 14  1  0  0  0  0
 13 15  2  0  0  0  0
 13 16  1  0  0  0  0
 14 17  1  0  0  0  0
 16 18  1  0  0  0  0
 17 19  1  0  0  0  0
 17 20  1  0  0  0  0
 18 21  1  0  0  0  0
 18 22  1  0  0  0  0
 19 23  1  0  0  0  0
 21 24  2  0  0  0  0
 22 25  2  0  0  0  0
 22 26  1  0  0  0  0
 25 27  1  0  0  0  0
 26 28  1  0  0  0  0
 27 29  1  0  0  0  0
  7  9  1  0  0  0  0
 20 23  1  0  0  0  0
 24 25  1  0  0  0  0
 28 29  1  0  0  0  0
  4 30  1  0  0  0  0
  8 31  1  0  0  0  0
  8 32  1  0  0  0  0
  8 33  1  0  0  0  0
  9 34  1  0  0  0  0
 10 35  1  0  0  0  0
 10 36  1  0  0  0  0
 14 37  1  0  0  0  0
 14 38  1  0  0  0  0
 16 39  1  0  0  0  0
 16 40  1  0  0  0  0
 17 41  1  0  0  0  0
 19 42  1  0  0  0  0
 19 43  1  0  0  0  0
 20 44  1  0  0  0  0
 20 45  1  0  0  0  0
 26 46  1  0  0  0  0
 26 47  1  0  0  0  0
 27 48  1  0  0  0  0
 27 49  1  0  0  0  0
 28 50  1  0  0  0  0
 28 51  1  0  0  0  0
 29 52  1  0  0  0  0
 29 53  1  0  0  0  0
M  END
> <BIOSOLVEIT.HYDE_ESTIMATED_AFFINITY_LOWER_BOUNDARY [nM]>
41090573.632787

> <BIOSOLVEIT.HYDE_ESTIMATED_AFFINITY_UPPER_BOUNDARY [nM]>
4082591437.115778

> <BIOSOLVEIT.HYDE_LIGAND_EFFICIENCY range: ++, +, 0, -, -->
--

> <BIOSOLVEIT.HYDE_LIGAND_LIPOPHILIC_EFFICIENCY range: ++, +, 0, -, -->
--

> <BIOSOLVEIT.INTER_CLASH range: red, yellow, green>
green

> <BIOSOLVEIT.INTRA_CLASH range: red, yellow, green>
green

> <BIOSOLVEIT.LOGP>
3.1475

> <BIOSOLVEIT.MOLECULAR WEIGHT>
439.341

> <BIOSOLVEIT.MOLECULE_CHECKSUM>
LTIuMjEyNzc7MC4wNzYzMDI1

> <BIOSOLVEIT.TORSION_QUALITY range: red, yellow, green, not rotatable>
red

> <BIOSOLVEIT.TPSA>
69.48

> <BIOSOLVEIT.SEESAR_FAVORITE>
favorite

> <smc_score>
0.625

> <QED_score>
0.663

> <distance>
0.719

> <SimilarityPheSA_1>
0.649

> <Smiles>
COc1c(Cl)cc(Cl)cc1CN(CC1COC1)C(=O)Cn1nnc2c1CCCC2

> <Similarity_SkelSpheres>
0.591

> <Cluster No>
201.0

> <QueryID>
ALP-POS-87c86d55-1

> <SimilarityPheSA>
0.6488

> <Postera series>
3-aminopyridine-like

> <PDB_code>
Mpro-x12143

> <Approach>
DGM_focussed_RL

> <ID>
20210618_396

> <SimilarityPheSA_2>
0.757

> <OPTIBRIUM.logD>
2.78098

> <OPTIBRIUM.BBB category>
-

> <OPTIBRIUM.logP>
2.78098

> <OPTIBRIUM.P-gp category>
yes

> <OPTIBRIUM.logS>
2.6045

> <OPTIBRIUM.HIA category>
+

> <OPTIBRIUM.PPB90 category>
high

> <OPTIBRIUM.2D6 affinity category>
medium

> <OPTIBRIUM.hERG pIC50>
5.36574

> <OPTIBRIUM.2C9 pKi>
5.06201

> <OPTIBRIUM.BBB log([brain]:[blood])>
-0.554118

> <OPTIBRIUM.logS @ pH7.4>
2.6045

$$$$
Compound 397_1_07
haSeeSAR  07122114523D 1   1.00000     0.00000     0
SeeSAR 11.0.2 hazemaj
 53 56  0  0  0  0            999 V2000
   22.7416  -10.7460    5.3270 Cl  0  0  0  0  0  0  0  0  0  0  0  0
   21.2515  -10.3874    4.4215 C   0  0  0  0  0  0  0  0  0  0  0  0
   20.3678  -11.4183    4.1197 C   0  0  0  0  0  0  0  0  0  0  0  0
   20.9875   -9.0804    4.0250 C   0  0  0  0  0  0  0  0  0  0  0  0
   20.6429  -12.6805    4.5138 O   0  0  0  0  0  0  0  0  0  0  0  0
   19.2054  -11.1310    3.4122 C   0  0  0  0  0  0  0  0  0  0  0  0
   19.8192   -8.8158    3.3178 C   0  0  0  0  0  0  0  0  0  0  0  0
   20.2259  -13.1312    5.7943 C   0  0  0  0  0  0  0  0  0  0  0  0
   18.9212   -9.8315    3.0060 C   0  0  0  0  0  0  0  0  0  0  0  0
   18.2265  -12.2442    3.0744 C   0  0  0  0  0  0  0  0  0  0  0  0
   19.4717   -7.1468    2.8063 Cl  0  0  0  0  0  0  0  0  0  0  0  0
   16.9928  -11.6622    2.5267 N   0  0  0  0  0  0  0  0  0  0  0  0
   16.0545  -11.2115    3.3433 C   0  0  0  0  0  0  0  0  0  0  0  0
   16.8013  -11.5810    1.0714 C   0  0  0  0  0  0  0  0  0  0  0  0
   16.3158  -10.3154    4.1460 O   0  0  0  0  0  0  0  0  0  0  0  0
   14.6541  -11.8001    3.2907 C   0  0  0  0  0  0  0  0  0  0  0  0
   16.9394  -12.9648    0.4650 C   0  0  0  0  0  0  0  0  0  0  0  0
   13.9356  -11.4706    4.5345 N   0  0  0  0  0  0  0  0  0  0  0  0
   16.6538  -12.9375   -1.0134 C   0  0  0  0  0  0  0  0  0  0  0  0
   15.6236  -13.7021    0.4336 C   0  0  0  0  0  0  0  0  0  0  0  0
   12.9105  -10.6674    4.6540 N   0  0  0  0  0  0  0  0  0  0  0  0
   14.2169  -11.9316    5.7850 C   0  0  0  0  0  0  0  0  0  0  0  0
   15.9876  -14.1744   -0.8387 O   0  0  0  0  0  0  0  0  0  0  0  0
   12.5115  -10.5814    5.8530 N   0  0  0  0  0  0  0  0  0  0  0  0
   13.3246  -11.3666    6.6300 C   0  0  0  0  0  0  0  0  0  0  0  0
   15.2954  -12.8471    6.3288 C   0  0  0  0  0  0  0  0  0  0  0  0
   13.4422  -11.6726    8.1158 C   0  0  0  0  0  0  0  0  0  0  0  0
   15.9021  -12.1410    7.5335 C   0  0  0  0  0  0  0  0  0  0  0  0
   14.9112  -11.5222    8.5095 C   0  0  0  0  0  0  0  0  0  0  0  0
   21.6268   -8.3434    4.2446 H   0  0  0  0  0  0  0  0  0  0  0  0
   20.5096  -14.0816    5.9218 H   0  0  0  0  0  0  0  0  0  0  0  0
   20.6444  -12.5607    6.5010 H   0  0  0  0  0  0  0  0  0  0  0  0
   19.2302  -13.0686    5.8616 H   0  0  0  0  0  0  0  0  0  0  0  0
   18.0839   -9.6303    2.4974 H   0  0  0  0  0  0  0  0  0  0  0  0
   18.0118  -12.7621    3.9025 H   0  0  0  0  0  0  0  0  0  0  0  0
   18.6367  -12.8545    2.3965 H   0  0  0  0  0  0  0  0  0  0  0  0
   17.4918  -10.9741    0.6777 H   0  0  0  0  0  0  0  0  0  0  0  0
   15.8896  -11.2202    0.8747 H   0  0  0  0  0  0  0  0  0  0  0  0
   14.7136  -12.7936    3.1932 H   0  0  0  0  0  0  0  0  0  0  0  0
   14.1610  -11.4174    2.5095 H   0  0  0  0  0  0  0  0  0  0  0  0
   17.7370  -13.4956    0.7516 H   0  0  0  0  0  0  0  0  0  0  0  0
   17.4651  -12.9785   -1.5965 H   0  0  0  0  0  0  0  0  0  0  0  0
   16.0667  -12.1849   -1.3117 H   0  0  0  0  0  0  0  0  0  0  0  0
   14.8154  -13.1133    0.4442 H   0  0  0  0  0  0  0  0  0  0  0  0
   15.5272  -14.4130    1.1304 H   0  0  0  0  0  0  0  0  0  0  0  0
   15.9961  -13.0054    5.6331 H   0  0  0  0  0  0  0  0  0  0  0  0
   14.8974  -13.7215    6.6062 H   0  0  0  0  0  0  0  0  0  0  0  0
   13.1358  -12.6074    8.2959 H   0  0  0  0  0  0  0  0  0  0  0  0
   12.8820  -11.0315    8.6405 H   0  0  0  0  0  0  0  0  0  0  0  0
   16.4948  -11.4107    7.1942 H   0  0  0  0  0  0  0  0  0  0  0  0
   16.4508  -12.8092    8.0360 H   0  0  0  0  0  0  0  0  0  0  0  0
   15.0402  -11.9570    9.4008 H   0  0  0  0  0  0  0  0  0  0  0  0
   15.1150  -10.5460    8.5823 H   0  0  0  0  0  0  0  0  0  0  0  0
  1  2  1  0  0  0  0
  2  3  2  0  0  0  0
  2  4  1  0  0  0  0
  3  5  1  0  0  0  0
  3  6  1  0  0  0  0
  4  7  2  0  0  0  0
  5  8  1  0  0  0  0
  6  9  2  0  0  0  0
  6 10  1  0  0  0  0
  7 11  1  0  0  0  0
 10 12  1  0  0  0  0
 12 13  1  0  0  0  0
 12 14  1  0  0  0  0
 13 15  2  0  0  0  0
 13 16  1  0  0  0  0
 14 17  1  0  0  0  0
 16 18  1  0  0  0  0
 17 19  1  0  0  0  0
 17 20  1  0  0  0  0
 18 21  1  0  0  0  0
 18 22  1  0  0  0  0
 19 23  1  0  0  0  0
 21 24  2  0  0  0  0
 22 25  2  0  0  0  0
 22 26  1  0  0  0  0
 25 27  1  0  0  0  0
 26 28  1  0  0  0  0
 27 29  1  0  0  0  0
  7  9  1  0  0  0  0
 20 23  1  0  0  0  0
 24 25  1  0  0  0  0
 28 29  1  0  0  0  0
  4 30  1  0  0  0  0
  8 31  1  0  0  0  0
  8 32  1  0  0  0  0
  8 33  1  0  0  0  0
  9 34  1  0  0  0  0
 10 35  1  0  0  0  0
 10 36  1  0  0  0  0
 14 37  1  0  0  0  0
 14 38  1  0  0  0  0
 16 39  1  0  0  0  0
 16 40  1  0  0  0  0
 17 41  1  0  0  0  0
 19 42  1  0  0  0  0
 19 43  1  0  0  0  0
 20 44  1  0  0  0  0
 20 45  1  0  0  0  0
 26 46  1  0  0  0  0
 26 47  1  0  0  0  0
 27 48  1  0  0  0  0
 27 49  1  0  0  0  0
 28 50  1  0  0  0  0
 28 51  1  0  0  0  0
 29 52  1  0  0  0  0
 29 53  1  0  0  0  0
M  END
> <BIOSOLVEIT.HYDE_ESTIMATED_AFFINITY_LOWER_BOUNDARY [nM]>
313977564.662021

> <BIOSOLVEIT.HYDE_ESTIMATED_AFFINITY_UPPER_BOUNDARY [nM]>
31195527431.450314

> <BIOSOLVEIT.HYDE_LIGAND_EFFICIENCY range: ++, +, 0, -, -->
--

> <BIOSOLVEIT.HYDE_LIGAND_LIPOPHILIC_EFFICIENCY range: ++, +, 0, -, -->
--

> <BIOSOLVEIT.INTER_CLASH range: red, yellow, green>
green

> <BIOSOLVEIT.INTRA_CLASH range: red, yellow, green>
green

> <BIOSOLVEIT.LOGP>
3.1475

> <BIOSOLVEIT.MOLECULAR WEIGHT>
439.341

> <BIOSOLVEIT.MOLECULE_CHECKSUM>
Mi44MjgyOTsw

> <BIOSOLVEIT.TORSION_QUALITY range: red, yellow, green, not rotatable>
yellow

> <BIOSOLVEIT.TPSA>
69.48

> <BIOSOLVEIT.SEESAR_FAVORITE>
favorite

> <smc_score>
0.625

> <QED_score>
0.663

> <distance>
0.719

> <SimilarityPheSA_1>
0.649

> <Smiles>
COc1c(Cl)cc(Cl)cc1CN(CC1COC1)C(=O)Cn1nnc2c1CCCC2

> <Similarity_SkelSpheres>
0.591

> <Cluster No>
201.0

> <QueryID>
ALP-POS-87c86d55-1

> <SimilarityPheSA>
0.6488

> <Postera series>
3-aminopyridine-like

> <PDB_code>
Mpro-x12143

> <Approach>
DGM_focussed_RL

> <ID>
20210618_396

> <SimilarityPheSA_2>
0.757

> <OPTIBRIUM.logD>
2.78098

> <OPTIBRIUM.BBB category>
-

> <OPTIBRIUM.logP>
2.78098

> <OPTIBRIUM.P-gp category>
yes

> <OPTIBRIUM.logS>
2.6045

> <OPTIBRIUM.HIA category>
+

> <OPTIBRIUM.PPB90 category>
high

> <OPTIBRIUM.2D6 affinity category>
medium

> <OPTIBRIUM.hERG pIC50>
5.36574

> <OPTIBRIUM.2C9 pKi>
5.06201

> <OPTIBRIUM.BBB log([brain]:[blood])>
-0.554118

> <OPTIBRIUM.logS @ pH7.4>
2.6045

$$$$
Compound 561_1_02
haSeeSAR  07122114523D 1   1.00000     0.00000     0
SeeSAR 11.0.2 hazemaj
 46 49  0  0  0  0            999 V2000
   19.9592  -12.8587    8.6166 Cl  0  0  0  0  0  0  0  0  0  0  0  0
   20.1694  -12.1721    6.9875 C   0  0  0  0  0  0  0  0  0  0  0  0
   21.3779  -11.5984    6.6060 C   0  0  0  0  0  0  0  0  0  0  0  0
   19.1016  -12.2238    6.1016 C   0  0  0  0  0  0  0  0  0  0  0  0
   22.3758  -11.5661    7.4821 F   0  0  0  0  0  0  0  0  0  0  0  0
   21.5086  -11.0704    5.3264 C   0  0  0  0  0  0  0  0  0  0  0  0
   19.2565  -11.6819    4.8310 C   0  0  0  0  0  0  0  0  0  0  0  0
   20.4486  -11.0913    4.4293 C   0  0  0  0  0  0  0  0  0  0  0  0
   18.0971  -11.7211    3.8429 C   0  0  1  0  0  0  0  0  0  0  0  0
   20.5829  -10.5355    3.2032 O   0  0  0  0  0  0  0  0  0  0  0  0
   16.7648  -11.4018    4.5011 C   0  0  0  0  0  0  0  0  0  0  0  0
   18.3072  -10.7854    2.6639 C   0  0  0  0  0  0  0  0  0  0  0  0
   19.7255  -10.8891    2.1318 C   0  0  0  0  0  0  0  0  0  0  0  0
   16.5160  -10.2510    4.8605 O   0  0  0  0  0  0  0  0  0  0  0  0
   15.8726  -12.3607    4.6880 N   0  0  0  0  0  0  0  0  0  0  0  0
   15.2050  -12.9190    3.5913 C   0  0  0  0  0  0  0  0  0  0  0  0
   15.5822  -12.8398    6.0470 C   0  0  0  0  0  0  0  0  0  0  0  0
   14.8612  -12.2537    2.3946 C   0  0  0  0  0  0  0  0  0  0  0  0
   14.7667  -14.2038    3.4775 C   0  0  0  0  0  0  0  0  0  0  0  0
   14.4681  -12.0002    6.6535 C   0  0  0  0  0  0  0  0  0  0  0  0
   14.2520  -13.1360    1.6388 N   0  0  0  0  0  0  0  0  0  0  0  0
   14.1828  -14.2987    2.2520 N   0  0  0  0  0  0  0  0  0  0  0  0
   13.6152  -11.2319    5.8683 C   0  0  0  0  0  0  0  0  0  0  0  0
   14.2862  -11.9919    8.0319 C   0  0  0  0  0  0  0  0  0  0  0  0
   13.5769  -15.5242    1.7100 C   0  0  0  0  0  0  0  0  0  0  0  0
   12.6395  -10.4987    6.4241 N   0  0  0  0  0  0  0  0  0  0  0  0
   13.2703  -11.2265    8.5948 C   0  0  0  0  0  0  0  0  0  0  0  0
   12.4530  -10.4808    7.7519 C   0  0  0  0  0  0  0  0  0  0  0  0
   18.2356  -12.6439    6.3730 H   0  0  0  0  0  0  0  0  0  0  0  0
   22.3808  -10.6687    5.0472 H   0  0  0  0  0  0  0  0  0  0  0  0
   18.0396  -12.6521    3.4824 H   0  0  0  0  0  0  0  0  0  0  0  0
   18.1364   -9.8451    2.9582 H   0  0  0  0  0  0  0  0  0  0  0  0
   17.6664  -11.0283    1.9355 H   0  0  0  0  0  0  0  0  0  0  0  0
   19.9146  -11.8242    1.8320 H   0  0  0  0  0  0  0  0  0  0  0  0
   19.8537  -10.2607    1.3647 H   0  0  0  0  0  0  0  0  0  0  0  0
   16.4041  -12.7606    6.6111 H   0  0  0  0  0  0  0  0  0  0  0  0
   15.2952  -13.7970    6.0087 H   0  0  0  0  0  0  0  0  0  0  0  0
   15.0458  -11.2974    2.1676 H   0  0  0  0  0  0  0  0  0  0  0  0
   14.8560  -14.9312    4.1580 H   0  0  0  0  0  0  0  0  0  0  0  0
   13.7312  -11.2261    4.8751 H   0  0  0  0  0  0  0  0  0  0  0  0
   14.8858  -12.5361    8.6186 H   0  0  0  0  0  0  0  0  0  0  0  0
   13.2157  -15.3413    0.7957 H   0  0  0  0  0  0  0  0  0  0  0  0
   14.2698  -16.2433    1.6570 H   0  0  0  0  0  0  0  0  0  0  0  0
   12.8332  -15.8215    2.3089 H   0  0  0  0  0  0  0  0  0  0  0  0
   13.1304  -11.2128    9.5848 H   0  0  0  0  0  0  0  0  0  0  0  0
   11.7180   -9.9250    8.1405 H   0  0  0  0  0  0  0  0  0  0  0  0
  1  2  1  0  0  0  0
  2  3  2  0  0  0  0
  2  4  1  0  0  0  0
  3  5  1  0  0  0  0
  3  6  1  0  0  0  0
  4  7  2  0  0  0  0
  6  8  2  0  0  0  0
  7  9  1  0  0  0  0
  8 10  1  0  0  0  0
  9 11  1  0  0  0  0
  9 12  1  0  0  0  0
 10 13  1  0  0  0  0
 11 14  2  0  0  0  0
 11 15  1  0  0  0  0
 15 16  1  0  0  0  0
 15 17  1  0  0  0  0
 16 18  1  0  0  0  0
 16 19  2  0  0  0  0
 17 20  1  0  0  0  0
 18 21  2  0  0  0  0
 19 22  1  0  0  0  0
 20 23  2  0  0  0  0
 20 24  1  0  0  0  0
 22 25  1  0  0  0  0
 23 26  1  0  0  0  0
 24 27  2  0  0  0  0
 26 28  2  0  0  0  0
  7  8  1  0  0  0  0
 12 13  1  0  0  0  0
 21 22  1  0  0  0  0
 27 28  1  0  0  0  0
  4 29  1  0  0  0  0
  6 30  1  0  0  0  0
  9 31  1  0  0  0  0
 12 32  1  0  0  0  0
 12 33  1  0  0  0  0
 13 34  1  0  0  0  0
 13 35  1  0  0  0  0
 17 36  1  0  0  0  0
 17 37  1  0  0  0  0
 18 38  1  0  0  0  0
 19 39  1  0  0  0  0
 23 40  1  0  0  0  0
 24 41  1  0  0  0  0
 25 42  1  0  0  0  0
 25 43  1  0  0  0  0
 25 44  1  0  0  0  0
 27 45  1  0  0  0  0
 28 46  1  0  0  0  0
M  END
> <BIOSOLVEIT.HYDE_ESTIMATED_AFFINITY_LOWER_BOUNDARY [nM]>
320000.780410

> <BIOSOLVEIT.HYDE_ESTIMATED_AFFINITY_UPPER_BOUNDARY [nM]>
31793969.528058

> <BIOSOLVEIT.HYDE_LIGAND_EFFICIENCY range: ++, +, 0, -, -->
--

> <BIOSOLVEIT.HYDE_LIGAND_LIPOPHILIC_EFFICIENCY range: ++, +, 0, -, -->
--

> <BIOSOLVEIT.INTER_CLASH range: red, yellow, green>
green

> <BIOSOLVEIT.INTRA_CLASH range: red, yellow, green>
green

> <BIOSOLVEIT.LOGP>
3.7071

> <BIOSOLVEIT.MOLECULAR WEIGHT>
400.839

> <BIOSOLVEIT.MOLECULE_CHECKSUM>
LTE0LjI0ODY7MC41MDg4OA==

> <BIOSOLVEIT.TORSION_QUALITY range: red, yellow, green, not rotatable>
yellow

> <BIOSOLVEIT.TPSA>
60.25

> <BIOSOLVEIT.SEESAR_FAVORITE>
favorite

> <smc_score>
1.0

> <QED_score>
0.67

> <distance>
0.551

> <SimilarityPheSA_1>
0.669

> <Smiles>
Cn1cc(N(Cc2cccnc2)C(=O)C2CCOc3cc(F)c(Cl)cc32)cn1

> <Similarity_SkelSpheres>
0.729

> <Cluster No>
301.0

> <QueryID>
MAT-POS-090737b9-1

> <SimilarityPheSA>
0.6685

> <Postera series>
3-aminopyridine-like

> <PDB_code>
Mpro-x12735

> <Approach>
DGM_focussed_RL

> <ID>
20210618_560

> <SimilarityPheSA_2>
0.745

> <OPTIBRIUM.logD>
2.65468

> <OPTIBRIUM.BBB category>
-

> <OPTIBRIUM.logP>
2.65468

> <OPTIBRIUM.P-gp category>
no

> <OPTIBRIUM.logS>
1.19329

> <OPTIBRIUM.HIA category>
+

> <OPTIBRIUM.PPB90 category>
high

> <OPTIBRIUM.2D6 affinity category>
medium

> <OPTIBRIUM.hERG pIC50>
5.4684

> <OPTIBRIUM.2C9 pKi>
5.60578

> <OPTIBRIUM.BBB log([brain]:[blood])>
-0.290783

> <OPTIBRIUM.logS @ pH7.4>
1.19329

$$$$
Compound 561_1_04
haSeeSAR  07122114523D 1   1.00000     0.00000     0
SeeSAR 11.0.2 hazemaj
 46 49  0  0  0  0            999 V2000
   21.7602   -8.9674    7.5658 Cl  0  0  0  0  0  0  0  0  0  0  0  0
   20.9507   -9.9490    6.3201 C   0  0  0  0  0  0  0  0  0  0  0  0
   21.5191  -10.0783    5.0611 C   0  0  0  0  0  0  0  0  0  0  0  0
   19.7537  -10.5859    6.6242 C   0  0  0  0  0  0  0  0  0  0  0  0
   22.6634   -9.4635    4.7846 F   0  0  0  0  0  0  0  0  0  0  0  0
   20.8808  -10.8642    4.0980 C   0  0  0  0  0  0  0  0  0  0  0  0
   19.1594  -11.3558    5.6321 C   0  0  0  0  0  0  0  0  0  0  0  0
   19.6935  -11.5417    4.3686 C   0  0  0  0  0  0  0  0  0  0  0  0
   17.8533  -12.0795    5.8742 C   0  0  1  0  0  0  0  0  0  0  0  0
   19.1281  -12.3835    3.4860 O   0  0  0  0  0  0  0  0  0  0  0  0
   16.6905  -11.4604    5.1160 C   0  0  0  0  0  0  0  0  0  0  0  0
   18.2020  -13.5091    5.4717 C   0  0  0  0  0  0  0  0  0  0  0  0
   18.6556  -13.6203    4.0176 C   0  0  0  0  0  0  0  0  0  0  0  0
   16.6380  -10.2406    4.9587 O   0  0  0  0  0  0  0  0  0  0  0  0
   15.7348  -12.2325    4.6252 N   0  0  0  0  0  0  0  0  0  0  0  0
   15.5030  -12.2675    3.2449 C   0  0  0  0  0  0  0  0  0  0  0  0
   14.9165  -13.0535    5.5290 C   0  0  0  0  0  0  0  0  0  0  0  0
   14.5088  -13.0201    2.5830 C   0  0  0  0  0  0  0  0  0  0  0  0
   16.1918  -11.5826    2.2898 C   0  0  0  0  0  0  0  0  0  0  0  0
   14.0231  -12.1501    6.3656 C   0  0  0  0  0  0  0  0  0  0  0  0
   14.6378  -12.7646    1.3028 N   0  0  0  0  0  0  0  0  0  0  0  0
   15.6238  -11.9167    1.0991 N   0  0  0  0  0  0  0  0  0  0  0  0
   12.9033  -11.5229    5.8301 C   0  0  0  0  0  0  0  0  0  0  0  0
   14.3237  -11.9370    7.7063 C   0  0  0  0  0  0  0  0  0  0  0  0
   16.0559  -11.3946   -0.2061 C   0  0  0  0  0  0  0  0  0  0  0  0
   12.1295  -10.7301    6.5859 N   0  0  0  0  0  0  0  0  0  0  0  0
   13.5125  -11.1120    8.4783 C   0  0  0  0  0  0  0  0  0  0  0  0
   12.4078  -10.5151    7.8800 C   0  0  0  0  0  0  0  0  0  0  0  0
   19.3340  -10.4931    7.5271 H   0  0  0  0  0  0  0  0  0  0  0  0
   21.2880  -10.9428    3.1880 H   0  0  0  0  0  0  0  0  0  0  0  0
   17.6488  -12.0595    6.8529 H   0  0  0  0  0  0  0  0  0  0  0  0
   17.3932  -14.0833    5.5989 H   0  0  0  0  0  0  0  0  0  0  0  0
   18.9395  -13.8366    6.0624 H   0  0  0  0  0  0  0  0  0  0  0  0
   19.3935  -14.2930    3.9642 H   0  0  0  0  0  0  0  0  0  0  0  0
   17.8817  -13.9300    3.4650 H   0  0  0  0  0  0  0  0  0  0  0  0
   15.5141  -13.5822    6.1320 H   0  0  0  0  0  0  0  0  0  0  0  0
   14.3495  -13.6774    4.9911 H   0  0  0  0  0  0  0  0  0  0  0  0
   13.8379  -13.6285    3.0069 H   0  0  0  0  0  0  0  0  0  0  0  0
   16.9605  -10.9595    2.4345 H   0  0  0  0  0  0  0  0  0  0  0  0
   12.6719  -11.6650    4.8677 H   0  0  0  0  0  0  0  0  0  0  0  0
   15.1231  -12.3768    8.1154 H   0  0  0  0  0  0  0  0  0  0  0  0
   15.4857  -11.7875   -0.9275 H   0  0  0  0  0  0  0  0  0  0  0  0
   15.9642  -10.3989   -0.2138 H   0  0  0  0  0  0  0  0  0  0  0  0
   17.0117  -11.6427   -0.3644 H   0  0  0  0  0  0  0  0  0  0  0  0
   13.7193  -10.9514    9.4434 H   0  0  0  0  0  0  0  0  0  0  0  0
   11.8145   -9.9191    8.4209 H   0  0  0  0  0  0  0  0  0  0  0  0
  1  2  1  0  0  0  0
  2  3  2  0  0  0  0
  2  4  1  0  0  0  0
  3  5  1  0  0  0  0
  3  6  1  0  0  0  0
  4  7  2  0  0  0  0
  6  8  2  0  0  0  0
  7  9  1  0  0  0  0
  8 10  1  0  0  0  0
  9 11  1  0  0  0  0
  9 12  1  0  0  0  0
 10 13  1  0  0  0  0
 11 14  2  0  0  0  0
 11 15  1  0  0  0  0
 15 16  1  0  0  0  0
 15 17  1  0  0  0  0
 16 18  1  0  0  0  0
 16 19  2  0  0  0  0
 17 20  1  0  0  0  0
 18 21  2  0  0  0  0
 19 22  1  0  0  0  0
 20 23  2  0  0  0  0
 20 24  1  0  0  0  0
 22 25  1  0  0  0  0
 23 26  1  0  0  0  0
 24 27  2  0  0  0  0
 26 28  2  0  0  0  0
  7  8  1  0  0  0  0
 12 13  1  0  0  0  0
 21 22  1  0  0  0  0
 27 28  1  0  0  0  0
  4 29  1  0  0  0  0
  6 30  1  0  0  0  0
  9 31  1  0  0  0  0
 12 32  1  0  0  0  0
 12 33  1  0  0  0  0
 13 34  1  0  0  0  0
 13 35  1  0  0  0  0
 17 36  1  0  0  0  0
 17 37  1  0  0  0  0
 18 38  1  0  0  0  0
 19 39  1  0  0  0  0
 23 40  1  0  0  0  0
 24 41  1  0  0  0  0
 25 42  1  0  0  0  0
 25 43  1  0  0  0  0
 25 44  1  0  0  0  0
 27 45  1  0  0  0  0
 28 46  1  0  0  0  0
M  END
> <BIOSOLVEIT.HYDE_ESTIMATED_AFFINITY_LOWER_BOUNDARY [nM]>
597579.650901

> <BIOSOLVEIT.HYDE_ESTIMATED_AFFINITY_UPPER_BOUNDARY [nM]>
59373071.487526

> <BIOSOLVEIT.HYDE_LIGAND_EFFICIENCY range: ++, +, 0, -, -->
--

> <BIOSOLVEIT.HYDE_LIGAND_LIPOPHILIC_EFFICIENCY range: ++, +, 0, -, -->
--

> <BIOSOLVEIT.INTER_CLASH range: red, yellow, green>
green

> <BIOSOLVEIT.INTRA_CLASH range: red, yellow, green>
green

> <BIOSOLVEIT.LOGP>
3.7071

> <BIOSOLVEIT.MOLECULAR WEIGHT>
400.839

> <BIOSOLVEIT.MOLECULE_CHECKSUM>
LTEyLjcwMDQ7MC40NTM1ODQ=

> <BIOSOLVEIT.TORSION_QUALITY range: red, yellow, green, not rotatable>
yellow

> <BIOSOLVEIT.TPSA>
60.25

> <BIOSOLVEIT.SEESAR_FAVORITE>
favorite

> <smc_score>
1.0

> <QED_score>
0.67

> <distance>
0.551

> <SimilarityPheSA_1>
0.669

> <Smiles>
Cn1cc(N(Cc2cccnc2)C(=O)C2CCOc3cc(F)c(Cl)cc32)cn1

> <Similarity_SkelSpheres>
0.729

> <Cluster No>
301.0

> <QueryID>
MAT-POS-090737b9-1

> <SimilarityPheSA>
0.6685

> <Postera series>
3-aminopyridine-like

> <PDB_code>
Mpro-x12735

> <Approach>
DGM_focussed_RL

> <ID>
20210618_560

> <SimilarityPheSA_2>
0.745

> <OPTIBRIUM.logD>
2.65468

> <OPTIBRIUM.BBB category>
-

> <OPTIBRIUM.logP>
2.65468

> <OPTIBRIUM.P-gp category>
no

> <OPTIBRIUM.logS>
1.19329

> <OPTIBRIUM.HIA category>
+

> <OPTIBRIUM.PPB90 category>
high

> <OPTIBRIUM.2D6 affinity category>
medium

> <OPTIBRIUM.hERG pIC50>
5.4684

> <OPTIBRIUM.2C9 pKi>
5.60578

> <OPTIBRIUM.BBB log([brain]:[blood])>
-0.290783

> <OPTIBRIUM.logS @ pH7.4>
1.19329

$$$$
Compound 561_1_05
haSeeSAR  07122114523D 1   1.00000     0.00000     0
SeeSAR 11.0.2 hazemaj
 46 49  0  0  0  0            999 V2000
   20.4036   -8.6081    7.3598 Cl  0  0  0  0  0  0  0  0  0  0  0  0
   20.0993  -10.1000    6.4391 C   0  0  0  0  0  0  0  0  0  0  0  0
   21.0728  -10.6452    5.6090 C   0  0  0  0  0  0  0  0  0  0  0  0
   18.8663  -10.7326    6.5560 C   0  0  0  0  0  0  0  0  0  0  0  0
   22.2434  -10.0197    5.5107 F   0  0  0  0  0  0  0  0  0  0  0  0
   20.8180  -11.8170    4.9047 C   0  0  0  0  0  0  0  0  0  0  0  0
   18.6419  -11.9053    5.8396 C   0  0  0  0  0  0  0  0  0  0  0  0
   19.5985  -12.4722    5.0147 C   0  0  0  0  0  0  0  0  0  0  0  0
   17.2764  -12.5626    5.9784 C   0  0  1  0  0  0  0  0  0  0  0  0
   19.3660  -13.6332    4.3627 O   0  0  0  0  0  0  0  0  0  0  0  0
   16.2285  -11.8723    5.1208 C   0  0  0  0  0  0  0  0  0  0  0  0
   17.3546  -14.0136    5.5241 C   0  0  0  0  0  0  0  0  0  0  0  0
   18.0571  -14.1535    4.1825 C   0  0  0  0  0  0  0  0  0  0  0  0
   16.2215  -10.6449    5.0262 O   0  0  0  0  0  0  0  0  0  0  0  0
   15.3237  -12.5905    4.4759 N   0  0  0  0  0  0  0  0  0  0  0  0
   15.3457  -12.6522    3.0774 C   0  0  0  0  0  0  0  0  0  0  0  0
   14.2952  -13.3238    5.2278 C   0  0  0  0  0  0  0  0  0  0  0  0
   14.9737  -13.7585    2.2834 C   0  0  0  0  0  0  0  0  0  0  0  0
   15.7284  -11.6580    2.2282 C   0  0  0  0  0  0  0  0  0  0  0  0
   13.6101  -12.3791    6.2036 C   0  0  0  0  0  0  0  0  0  0  0  0
   15.1427  -13.3950    1.0343 N   0  0  0  0  0  0  0  0  0  0  0  0
   15.5866  -12.1574    0.9704 N   0  0  0  0  0  0  0  0  0  0  0  0
   12.5376  -11.5797    5.8236 C   0  0  0  0  0  0  0  0  0  0  0  0
   14.0599  -12.3030    7.5171 C   0  0  0  0  0  0  0  0  0  0  0  0
   15.8835  -11.4108   -0.2613 C   0  0  0  0  0  0  0  0  0  0  0  0
   11.9485  -10.7534    6.7003 N   0  0  0  0  0  0  0  0  0  0  0  0
   13.4396  -11.4415    8.4159 C   0  0  0  0  0  0  0  0  0  0  0  0
   12.3721  -10.6695    7.9700 C   0  0  0  0  0  0  0  0  0  0  0  0
   18.1531  -10.3518    7.1446 H   0  0  0  0  0  0  0  0  0  0  0  0
   21.5261  -12.1948    4.3082 H   0  0  0  0  0  0  0  0  0  0  0  0
   16.9912  -12.5317    6.9364 H   0  0  0  0  0  0  0  0  0  0  0  0
   16.4265  -14.3766    5.4419 H   0  0  0  0  0  0  0  0  0  0  0  0
   17.8589  -14.5395    6.2090 H   0  0  0  0  0  0  0  0  0  0  0  0
   18.1010  -15.1155    3.9131 H   0  0  0  0  0  0  0  0  0  0  0  0
   17.5709  -13.6326    3.4809 H   0  0  0  0  0  0  0  0  0  0  0  0
   14.7228  -14.0730    5.7337 H   0  0  0  0  0  0  0  0  0  0  0  0
   13.6183  -13.6947    4.5919 H   0  0  0  0  0  0  0  0  0  0  0  0
   14.6458  -14.6452    2.6091 H   0  0  0  0  0  0  0  0  0  0  0  0
   16.0490  -10.7446    2.4789 H   0  0  0  0  0  0  0  0  0  0  0  0
   12.2007  -11.6215    4.8829 H   0  0  0  0  0  0  0  0  0  0  0  0
   14.8292  -12.8679    7.8157 H   0  0  0  0  0  0  0  0  0  0  0  0
   15.7006  -11.9909   -1.0550 H   0  0  0  0  0  0  0  0  0  0  0  0
   15.3062  -10.5954   -0.3042 H   0  0  0  0  0  0  0  0  0  0  0  0
   16.8457  -11.1383   -0.2622 H   0  0  0  0  0  0  0  0  0  0  0  0
   13.7548  -11.3784    9.3628 H   0  0  0  0  0  0  0  0  0  0  0  0
   11.9152  -10.0448    8.6033 H   0  0  0  0  0  0  0  0  0  0  0  0
  1  2  1  0  0  0  0
  2  3  2  0  0  0  0
  2  4  1  0  0  0  0
  3  5  1  0  0  0  0
  3  6  1  0  0  0  0
  4  7  2  0  0  0  0
  6  8  2  0  0  0  0
  7  9  1  0  0  0  0
  8 10  1  0  0  0  0
  9 11  1  0  0  0  0
  9 12  1  0  0  0  0
 10 13  1  0  0  0  0
 11 14  2  0  0  0  0
 11 15  1  0  0  0  0
 15 16  1  0  0  0  0
 15 17  1  0  0  0  0
 16 18  1  0  0  0  0
 16 19  2  0  0  0  0
 17 20  1  0  0  0  0
 18 21  2  0  0  0  0
 19 22  1  0  0  0  0
 20 23  2  0  0  0  0
 20 24  1  0  0  0  0
 22 25  1  0  0  0  0
 23 26  1  0  0  0  0
 24 27  2  0  0  0  0
 26 28  2  0  0  0  0
  7  8  1  0  0  0  0
 12 13  1  0  0  0  0
 21 22  1  0  0  0  0
 27 28  1  0  0  0  0
  4 29  1  0  0  0  0
  6 30  1  0  0  0  0
  9 31  1  0  0  0  0
 12 32  1  0  0  0  0
 12 33  1  0  0  0  0
 13 34  1  0  0  0  0
 13 35  1  0  0  0  0
 17 36  1  0  0  0  0
 17 37  1  0  0  0  0
 18 38  1  0  0  0  0
 19 39  1  0  0  0  0
 23 40  1  0  0  0  0
 24 41  1  0  0  0  0
 25 42  1  0  0  0  0
 25 43  1  0  0  0  0
 25 44  1  0  0  0  0
 27 45  1  0  0  0  0
 28 46  1  0  0  0  0
M  END
> <BIOSOLVEIT.HYDE_ESTIMATED_AFFINITY_LOWER_BOUNDARY [nM]>
96041.263072

> <BIOSOLVEIT.HYDE_ESTIMATED_AFFINITY_UPPER_BOUNDARY [nM]>
9542267.327067

> <BIOSOLVEIT.HYDE_LIGAND_EFFICIENCY range: ++, +, 0, -, -->
--

> <BIOSOLVEIT.HYDE_LIGAND_LIPOPHILIC_EFFICIENCY range: ++, +, 0, -, -->
--

> <BIOSOLVEIT.INTER_CLASH range: red, yellow, green>
green

> <BIOSOLVEIT.INTRA_CLASH range: red, yellow, green>
green

> <BIOSOLVEIT.LOGP>
3.7071

> <BIOSOLVEIT.MOLECULAR WEIGHT>
400.839

> <BIOSOLVEIT.MOLECULE_CHECKSUM>
LTE3LjIzMjI7MC42MTU0MzU=

> <BIOSOLVEIT.TORSION_QUALITY range: red, yellow, green, not rotatable>
red

> <BIOSOLVEIT.TPSA>
60.25

> <BIOSOLVEIT.SEESAR_FAVORITE>
favorite

> <smc_score>
1.0

> <QED_score>
0.67

> <distance>
0.551

> <SimilarityPheSA_1>
0.669

> <Smiles>
Cn1cc(N(Cc2cccnc2)C(=O)C2CCOc3cc(F)c(Cl)cc32)cn1

> <Similarity_SkelSpheres>
0.729

> <Cluster No>
301.0

> <QueryID>
MAT-POS-090737b9-1

> <SimilarityPheSA>
0.6685

> <Postera series>
3-aminopyridine-like

> <PDB_code>
Mpro-x12735

> <Approach>
DGM_focussed_RL

> <ID>
20210618_560

> <SimilarityPheSA_2>
0.745

> <OPTIBRIUM.logD>
2.65468

> <OPTIBRIUM.BBB category>
-

> <OPTIBRIUM.logP>
2.65468

> <OPTIBRIUM.P-gp category>
no

> <OPTIBRIUM.logS>
1.19329

> <OPTIBRIUM.HIA category>
+

> <OPTIBRIUM.PPB90 category>
high

> <OPTIBRIUM.2D6 affinity category>
medium

> <OPTIBRIUM.hERG pIC50>
5.4684

> <OPTIBRIUM.2C9 pKi>
5.60578

> <OPTIBRIUM.BBB log([brain]:[blood])>
-0.290783

> <OPTIBRIUM.logS @ pH7.4>
1.19329

$$$$
Compound 561_1_07
haSeeSAR  07122114523D 1   1.00000     0.00000     0
SeeSAR 11.0.2 hazemaj
 46 49  0  0  0  0            999 V2000
   21.2773   -8.9310    8.4969 Cl  0  0  0  0  0  0  0  0  0  0  0  0
   20.6905   -9.6474    6.9762 C   0  0  0  0  0  0  0  0  0  0  0  0
   21.3189   -9.3419    5.7776 C   0  0  0  0  0  0  0  0  0  0  0  0
   19.6065  -10.5164    7.0046 C   0  0  0  0  0  0  0  0  0  0  0  0
   22.3535   -8.5094    5.7654 F   0  0  0  0  0  0  0  0  0  0  0  0
   20.8575   -9.9233    4.5937 C   0  0  0  0  0  0  0  0  0  0  0  0
   19.1867  -11.0682    5.8007 C   0  0  0  0  0  0  0  0  0  0  0  0
   19.7911  -10.8203    4.5801 C   0  0  0  0  0  0  0  0  0  0  0  0
   18.0122  -12.0192    5.7379 C   0  0  1  0  0  0  0  0  0  0  0  0
   19.4078  -11.4658    3.4648 O   0  0  0  0  0  0  0  0  0  0  0  0
   16.7912  -11.4005    5.0773 C   0  0  0  0  0  0  0  0  0  0  0  0
   18.6100  -13.2157    5.0040 C   0  0  0  0  0  0  0  0  0  0  0  0
   19.1295  -12.8572    3.6132 C   0  0  0  0  0  0  0  0  0  0  0  0
   16.7053  -10.1776    4.9652 O   0  0  0  0  0  0  0  0  0  0  0  0
   15.8207  -12.1762    4.6226 N   0  0  0  0  0  0  0  0  0  0  0  0
   15.5359  -12.2106    3.2522 C   0  0  0  0  0  0  0  0  0  0  0  0
   15.0414  -13.0020    5.5562 C   0  0  0  0  0  0  0  0  0  0  0  0
   14.4967  -12.9377    2.6323 C   0  0  0  0  0  0  0  0  0  0  0  0
   16.2071  -11.5496    2.2681 C   0  0  0  0  0  0  0  0  0  0  0  0
   14.1279  -12.1093    6.3812 C   0  0  0  0  0  0  0  0  0  0  0  0
   14.5843  -12.6915    1.3467 N   0  0  0  0  0  0  0  0  0  0  0  0
   15.5853  -11.8727    1.1015 N   0  0  0  0  0  0  0  0  0  0  0  0
   13.0497  -11.4467    5.8047 C   0  0  0  0  0  0  0  0  0  0  0  0
   14.3614  -11.9415    7.7417 C   0  0  0  0  0  0  0  0  0  0  0  0
   15.9823  -11.3687   -0.2219 C   0  0  0  0  0  0  0  0  0  0  0  0
   12.2516  -10.6623    6.5437 N   0  0  0  0  0  0  0  0  0  0  0  0
   13.5236  -11.1238    8.4930 C   0  0  0  0  0  0  0  0  0  0  0  0
   12.4620  -10.4881    7.8565 C   0  0  0  0  0  0  0  0  0  0  0  0
   19.1438  -10.7374    7.8632 H   0  0  0  0  0  0  0  0  0  0  0  0
   21.3056   -9.6890    3.7310 H   0  0  0  0  0  0  0  0  0  0  0  0
   17.7709  -12.2974    6.6676 H   0  0  0  0  0  0  0  0  0  0  0  0
   17.9045  -13.9183    4.9103 H   0  0  0  0  0  0  0  0  0  0  0  0
   19.3694  -13.5761    5.5458 H   0  0  0  0  0  0  0  0  0  0  0  0
   19.9712  -13.3704    3.4451 H   0  0  0  0  0  0  0  0  0  0  0  0
   18.4396  -13.1182    2.9380 H   0  0  0  0  0  0  0  0  0  0  0  0
   15.6636  -13.4952    6.1642 H   0  0  0  0  0  0  0  0  0  0  0  0
   14.4898  -13.6576    5.0406 H   0  0  0  0  0  0  0  0  0  0  0  0
   13.8256  -13.5252    3.0844 H   0  0  0  0  0  0  0  0  0  0  0  0
   16.9978  -10.9478    2.3804 H   0  0  0  0  0  0  0  0  0  0  0  0
   12.8674  -11.5565    4.8276 H   0  0  0  0  0  0  0  0  0  0  0  0
   15.1303  -12.4077    8.1792 H   0  0  0  0  0  0  0  0  0  0  0  0
   15.3744  -11.7484   -0.9191 H   0  0  0  0  0  0  0  0  0  0  0  0
   15.9183  -10.3708   -0.2314 H   0  0  0  0  0  0  0  0  0  0  0  0
   16.9240  -11.6442   -0.4148 H   0  0  0  0  0  0  0  0  0  0  0  0
   13.6812  -10.9954    9.4721 H   0  0  0  0  0  0  0  0  0  0  0  0
   11.8510   -9.8964    8.3825 H   0  0  0  0  0  0  0  0  0  0  0  0
  1  2  1  0  0  0  0
  2  3  2  0  0  0  0
  2  4  1  0  0  0  0
  3  5  1  0  0  0  0
  3  6  1  0  0  0  0
  4  7  2  0  0  0  0
  6  8  2  0  0  0  0
  7  9  1  0  0  0  0
  8 10  1  0  0  0  0
  9 11  1  0  0  0  0
  9 12  1  0  0  0  0
 10 13  1  0  0  0  0
 11 14  2  0  0  0  0
 11 15  1  0  0  0  0
 15 16  1  0  0  0  0
 15 17  1  0  0  0  0
 16 18  1  0  0  0  0
 16 19  2  0  0  0  0
 17 20  1  0  0  0  0
 18 21  2  0  0  0  0
 19 22  1  0  0  0  0
 20 23  2  0  0  0  0
 20 24  1  0  0  0  0
 22 25  1  0  0  0  0
 23 26  1  0  0  0  0
 24 27  2  0  0  0  0
 26 28  2  0  0  0  0
  7  8  1  0  0  0  0
 12 13  1  0  0  0  0
 21 22  1  0  0  0  0
 27 28  1  0  0  0  0
  4 29  1  0  0  0  0
  6 30  1  0  0  0  0
  9 31  1  0  0  0  0
 12 32  1  0  0  0  0
 12 33  1  0  0  0  0
 13 34  1  0  0  0  0
 13 35  1  0  0  0  0
 17 36  1  0  0  0  0
 17 37  1  0  0  0  0
 18 38  1  0  0  0  0
 19 39  1  0  0  0  0
 23 40  1  0  0  0  0
 24 41  1  0  0  0  0
 25 42  1  0  0  0  0
 25 43  1  0  0  0  0
 25 44  1  0  0  0  0
 27 45  1  0  0  0  0
 28 46  1  0  0  0  0
M  END
> <BIOSOLVEIT.HYDE_ESTIMATED_AFFINITY_LOWER_BOUNDARY [nM]>
2859127.195616

> <BIOSOLVEIT.HYDE_ESTIMATED_AFFINITY_UPPER_BOUNDARY [nM]>
284071191.382281

> <BIOSOLVEIT.HYDE_LIGAND_EFFICIENCY range: ++, +, 0, -, -->
--

> <BIOSOLVEIT.HYDE_LIGAND_LIPOPHILIC_EFFICIENCY range: ++, +, 0, -, -->
--

> <BIOSOLVEIT.INTER_CLASH range: red, yellow, green>
green

> <BIOSOLVEIT.INTRA_CLASH range: red, yellow, green>
green

> <BIOSOLVEIT.LOGP>
3.7071

> <BIOSOLVEIT.MOLECULAR WEIGHT>
400.839

> <BIOSOLVEIT.MOLECULE_CHECKSUM>
LTguODE5ODQ7MC4zMTQ5OTQ=

> <BIOSOLVEIT.TORSION_QUALITY range: red, yellow, green, not rotatable>
yellow

> <BIOSOLVEIT.TPSA>
60.25

> <BIOSOLVEIT.SEESAR_FAVORITE>
favorite

> <smc_score>
1.0

> <QED_score>
0.67

> <distance>
0.551

> <SimilarityPheSA_1>
0.669

> <Smiles>
Cn1cc(N(Cc2cccnc2)C(=O)C2CCOc3cc(F)c(Cl)cc32)cn1

> <Similarity_SkelSpheres>
0.729

> <Cluster No>
301.0

> <QueryID>
MAT-POS-090737b9-1

> <SimilarityPheSA>
0.6685

> <Postera series>
3-aminopyridine-like

> <PDB_code>
Mpro-x12735

> <Approach>
DGM_focussed_RL

> <ID>
20210618_560

> <SimilarityPheSA_2>
0.745

> <OPTIBRIUM.logD>
2.65468

> <OPTIBRIUM.BBB category>
-

> <OPTIBRIUM.logP>
2.65468

> <OPTIBRIUM.P-gp category>
no

> <OPTIBRIUM.logS>
1.19329

> <OPTIBRIUM.HIA category>
+

> <OPTIBRIUM.PPB90 category>
high

> <OPTIBRIUM.2D6 affinity category>
medium

> <OPTIBRIUM.hERG pIC50>
5.4684

> <OPTIBRIUM.2C9 pKi>
5.60578

> <OPTIBRIUM.BBB log([brain]:[blood])>
-0.290783

> <OPTIBRIUM.logS @ pH7.4>
1.19329

$$$$
Compound 561_1_09
haSeeSAR  07122114523D 1   1.00000     0.00000     0
SeeSAR 11.0.2 hazemaj
 46 49  0  0  0  0            999 V2000
   21.3150   -8.8912    7.6036 Cl  0  0  0  0  0  0  0  0  0  0  0  0
   20.5888   -9.9938    6.4089 C   0  0  0  0  0  0  0  0  0  0  0  0
   21.2400  -10.2435    5.2095 C   0  0  0  0  0  0  0  0  0  0  0  0
   19.3725  -10.6030    6.6931 C   0  0  0  0  0  0  0  0  0  0  0  0
   22.4016   -9.6538    4.9512 F   0  0  0  0  0  0  0  0  0  0  0  0
   20.6660  -11.1228    4.2877 C   0  0  0  0  0  0  0  0  0  0  0  0
   18.8444  -11.4691    5.7439 C   0  0  0  0  0  0  0  0  0  0  0  0
   19.4617  -11.7757    4.5433 C   0  0  0  0  0  0  0  0  0  0  0  0
   17.5234  -12.1713    5.9678 C   0  0  1  0  0  0  0  0  0  0  0  0
   18.9549  -12.7025    3.7118 O   0  0  0  0  0  0  0  0  0  0  0  0
   16.4155  -11.6346    5.0764 C   0  0  0  0  0  0  0  0  0  0  0  0
   17.8952  -13.6321    5.7319 C   0  0  0  0  0  0  0  0  0  0  0  0
   18.4450  -13.8833    4.3293 C   0  0  0  0  0  0  0  0  0  0  0  0
   16.3463  -10.4287    4.8391 O   0  0  0  0  0  0  0  0  0  0  0  0
   15.5256  -12.4635    4.5557 N   0  0  0  0  0  0  0  0  0  0  0  0
   15.4460  -12.6229    3.1670 C   0  0  0  0  0  0  0  0  0  0  0  0
   14.6203  -13.2172    5.4350 C   0  0  0  0  0  0  0  0  0  0  0  0
   14.9930  -11.6597    2.2396 C   0  0  0  0  0  0  0  0  0  0  0  0
   15.7911  -13.7334    2.4575 C   0  0  0  0  0  0  0  0  0  0  0  0
   13.8403  -12.2481    6.3104 C   0  0  0  0  0  0  0  0  0  0  0  0
   15.0819  -12.2128    1.0535 N   0  0  0  0  0  0  0  0  0  0  0  0
   15.5522  -13.4385    1.1506 N   0  0  0  0  0  0  0  0  0  0  0  0
   12.7095  -11.5845    5.8466 C   0  0  0  0  0  0  0  0  0  0  0  0
   14.2595  -12.0097    7.6145 C   0  0  0  0  0  0  0  0  0  0  0  0
   15.7945  -14.3601    0.0304 C   0  0  0  0  0  0  0  0  0  0  0  0
   12.0368  -10.7338    6.6355 N   0  0  0  0  0  0  0  0  0  0  0  0
   13.5526  -11.1246    8.4216 C   0  0  0  0  0  0  0  0  0  0  0  0
   12.4302  -10.4940    7.8950 C   0  0  0  0  0  0  0  0  0  0  0  0
   18.8935  -10.4240    7.5524 H   0  0  0  0  0  0  0  0  0  0  0  0
   21.1331  -11.2885    3.4191 H   0  0  0  0  0  0  0  0  0  0  0  0
   17.2538  -12.0563    6.9240 H   0  0  0  0  0  0  0  0  0  0  0  0
   17.0783  -14.1944    5.8604 H   0  0  0  0  0  0  0  0  0  0  0  0
   18.5907  -13.8967    6.3999 H   0  0  0  0  0  0  0  0  0  0  0  0
   19.1834  -14.5547    4.3918 H   0  0  0  0  0  0  0  0  0  0  0  0
   17.7093  -14.2489    3.7592 H   0  0  0  0  0  0  0  0  0  0  0  0
   15.1544  -13.8334    6.0139 H   0  0  0  0  0  0  0  0  0  0  0  0
   13.9832  -13.7509    4.8789 H   0  0  0  0  0  0  0  0  0  0  0  0
   14.6680  -10.7368    2.4463 H   0  0  0  0  0  0  0  0  0  0  0  0
   16.1483  -14.5927    2.8235 H   0  0  0  0  0  0  0  0  0  0  0  0
   12.3934  -11.7441    4.9114 H   0  0  0  0  0  0  0  0  0  0  0  0
   15.0695  -12.4745    7.9722 H   0  0  0  0  0  0  0  0  0  0  0  0
   15.5416  -13.9146   -0.8284 H   0  0  0  0  0  0  0  0  0  0  0  0
   16.7633  -14.6067    0.0053 H   0  0  0  0  0  0  0  0  0  0  0  0
   15.2434  -15.1855    0.1527 H   0  0  0  0  0  0  0  0  0  0  0  0
   13.8450  -10.9452    9.3609 H   0  0  0  0  0  0  0  0  0  0  0  0
   11.9107   -9.8547    8.4619 H   0  0  0  0  0  0  0  0  0  0  0  0
  1  2  1  0  0  0  0
  2  3  2  0  0  0  0
  2  4  1  0  0  0  0
  3  5  1  0  0  0  0
  3  6  1  0  0  0  0
  4  7  2  0  0  0  0
  6  8  2  0  0  0  0
  7  9  1  0  0  0  0
  8 10  1  0  0  0  0
  9 11  1  0  0  0  0
  9 12  1  0  0  0  0
 10 13  1  0  0  0  0
 11 14  2  0  0  0  0
 11 15  1  0  0  0  0
 15 16  1  0  0  0  0
 15 17  1  0  0  0  0
 16 18  1  0  0  0  0
 16 19  2  0  0  0  0
 17 20  1  0  0  0  0
 18 21  2  0  0  0  0
 19 22  1  0  0  0  0
 20 23  2  0  0  0  0
 20 24  1  0  0  0  0
 22 25  1  0  0  0  0
 23 26  1  0  0  0  0
 24 27  2  0  0  0  0
 26 28  2  0  0  0  0
  7  8  1  0  0  0  0
 12 13  1  0  0  0  0
 21 22  1  0  0  0  0
 27 28  1  0  0  0  0
  4 29  1  0  0  0  0
  6 30  1  0  0  0  0
  9 31  1  0  0  0  0
 12 32  1  0  0  0  0
 12 33  1  0  0  0  0
 13 34  1  0  0  0  0
 13 35  1  0  0  0  0
 17 36  1  0  0  0  0
 17 37  1  0  0  0  0
 18 38  1  0  0  0  0
 19 39  1  0  0  0  0
 23 40  1  0  0  0  0
 24 41  1  0  0  0  0
 25 42  1  0  0  0  0
 25 43  1  0  0  0  0
 25 44  1  0  0  0  0
 27 45  1  0  0  0  0
 28 46  1  0  0  0  0
M  END
> <BIOSOLVEIT.HYDE_ESTIMATED_AFFINITY_LOWER_BOUNDARY [nM]>
1286285.978187

> <BIOSOLVEIT.HYDE_ESTIMATED_AFFINITY_UPPER_BOUNDARY [nM]>
127800117.057463

> <BIOSOLVEIT.HYDE_LIGAND_EFFICIENCY range: ++, +, 0, -, -->
--

> <BIOSOLVEIT.HYDE_LIGAND_LIPOPHILIC_EFFICIENCY range: ++, +, 0, -, -->
--

> <BIOSOLVEIT.INTER_CLASH range: red, yellow, green>
green

> <BIOSOLVEIT.INTRA_CLASH range: red, yellow, green>
green

> <BIOSOLVEIT.LOGP>
3.7071

> <BIOSOLVEIT.MOLECULAR WEIGHT>
400.839

> <BIOSOLVEIT.MOLECULE_CHECKSUM>
LTEwLjc5OTk7MC4zODU3MTI=

> <BIOSOLVEIT.TORSION_QUALITY range: red, yellow, green, not rotatable>
red

> <BIOSOLVEIT.TPSA>
60.25

> <BIOSOLVEIT.SEESAR_FAVORITE>
favorite

> <smc_score>
1.0

> <QED_score>
0.67

> <distance>
0.551

> <SimilarityPheSA_1>
0.669

> <Smiles>
Cn1cc(N(Cc2cccnc2)C(=O)C2CCOc3cc(F)c(Cl)cc32)cn1

> <Similarity_SkelSpheres>
0.729

> <Cluster No>
301.0

> <QueryID>
MAT-POS-090737b9-1

> <SimilarityPheSA>
0.6685

> <Postera series>
3-aminopyridine-like

> <PDB_code>
Mpro-x12735

> <Approach>
DGM_focussed_RL

> <ID>
20210618_560

> <SimilarityPheSA_2>
0.745

> <OPTIBRIUM.logD>
2.65468

> <OPTIBRIUM.BBB category>
-

> <OPTIBRIUM.logP>
2.65468

> <OPTIBRIUM.P-gp category>
no

> <OPTIBRIUM.logS>
1.19329

> <OPTIBRIUM.HIA category>
+

> <OPTIBRIUM.PPB90 category>
high

> <OPTIBRIUM.2D6 affinity category>
medium

> <OPTIBRIUM.hERG pIC50>
5.4684

> <OPTIBRIUM.2C9 pKi>
5.60578

> <OPTIBRIUM.BBB log([brain]:[blood])>
-0.290783

> <OPTIBRIUM.logS @ pH7.4>
1.19329

$$$$
Compound 561_1_10
haSeeSAR  07122114523D 1   1.00000     0.00000     0
SeeSAR 11.0.2 hazemaj
 46 49  0  0  0  0            999 V2000
   20.6094   -8.6413    7.7232 Cl  0  0  0  0  0  0  0  0  0  0  0  0
   20.3378  -10.0532    6.6749 C   0  0  0  0  0  0  0  0  0  0  0  0
   21.3517  -10.5557    5.8663 C   0  0  0  0  0  0  0  0  0  0  0  0
   19.0894  -10.6661    6.6683 C   0  0  0  0  0  0  0  0  0  0  0  0
   22.5365   -9.9500    5.8872 F   0  0  0  0  0  0  0  0  0  0  0  0
   21.1212  -11.6657    5.0610 C   0  0  0  0  0  0  0  0  0  0  0  0
   18.8900  -11.7768    5.8526 C   0  0  0  0  0  0  0  0  0  0  0  0
   19.8864  -12.3008    5.0464 C   0  0  0  0  0  0  0  0  0  0  0  0
   17.5076  -12.4130    5.8578 C   0  0  1  0  0  0  0  0  0  0  0  0
   19.6752  -13.4045    4.2953 O   0  0  0  0  0  0  0  0  0  0  0  0
   16.5269  -11.6381    4.9931 C   0  0  0  0  0  0  0  0  0  0  0  0
   17.5895  -13.8273    5.3002 C   0  0  0  0  0  0  0  0  0  0  0  0
   18.3716  -13.8816    3.9970 C   0  0  0  0  0  0  0  0  0  0  0  0
   16.5854  -10.4094    4.9462 O   0  0  0  0  0  0  0  0  0  0  0  0
   15.6103  -12.2842    4.2911 N   0  0  0  0  0  0  0  0  0  0  0  0
   15.6176  -12.2087    2.8931 C   0  0  0  0  0  0  0  0  0  0  0  0
   14.5844  -13.0811    4.9788 C   0  0  0  0  0  0  0  0  0  0  0  0
   14.5562  -12.5606    2.0313 C   0  0  0  0  0  0  0  0  0  0  0  0
   16.6474  -11.7823    2.1098 C   0  0  0  0  0  0  0  0  0  0  0  0
   13.8740  -12.2143    6.0074 C   0  0  0  0  0  0  0  0  0  0  0  0
   14.9784  -12.3385    0.8094 N   0  0  0  0  0  0  0  0  0  0  0  0
   16.2109  -11.8763    0.8243 N   0  0  0  0  0  0  0  0  0  0  0  0
   12.9814  -11.2144    5.6365 C   0  0  0  0  0  0  0  0  0  0  0  0
   14.1153  -12.4173    7.3617 C   0  0  0  0  0  0  0  0  0  0  0  0
   17.0074  -11.5074   -0.3556 C   0  0  0  0  0  0  0  0  0  0  0  0
   12.3662  -10.4616    6.5602 N   0  0  0  0  0  0  0  0  0  0  0  0
   13.4705  -11.6288    8.3089 C   0  0  0  0  0  0  0  0  0  0  0  0
   12.5899  -10.6460    7.8695 C   0  0  0  0  0  0  0  0  0  0  0  0
   18.3475  -10.3152    7.2398 H   0  0  0  0  0  0  0  0  0  0  0  0
   21.8585  -12.0130    4.4814 H   0  0  0  0  0  0  0  0  0  0  0  0
   17.1641  -12.4478    6.7962 H   0  0  0  0  0  0  0  0  0  0  0  0
   16.6622  -14.1631    5.1344 H   0  0  0  0  0  0  0  0  0  0  0  0
   18.0412  -14.4138    5.9724 H   0  0  0  0  0  0  0  0  0  0  0  0
   18.4158  -14.8215    3.6583 H   0  0  0  0  0  0  0  0  0  0  0  0
   17.9387  -13.2994    3.3087 H   0  0  0  0  0  0  0  0  0  0  0  0
   15.0172  -13.8566    5.4384 H   0  0  0  0  0  0  0  0  0  0  0  0
   13.9205  -13.4176    4.3109 H   0  0  0  0  0  0  0  0  0  0  0  0
   13.6588  -12.9105    2.2998 H   0  0  0  0  0  0  0  0  0  0  0  0
   17.5440  -11.4640    2.4177 H   0  0  0  0  0  0  0  0  0  0  0  0
   12.7956  -11.0546    4.6670 H   0  0  0  0  0  0  0  0  0  0  0  0
   14.7525  -13.1301    7.6546 H   0  0  0  0  0  0  0  0  0  0  0  0
   16.4696  -11.6656   -1.1836 H   0  0  0  0  0  0  0  0  0  0  0  0
   17.2574  -10.5407   -0.3000 H   0  0  0  0  0  0  0  0  0  0  0  0
   17.8371  -12.0649   -0.3853 H   0  0  0  0  0  0  0  0  0  0  0  0
   13.6366  -11.7657    9.2854 H   0  0  0  0  0  0  0  0  0  0  0  0
   12.1183  -10.0703    8.5375 H   0  0  0  0  0  0  0  0  0  0  0  0
  1  2  1  0  0  0  0
  2  3  2  0  0  0  0
  2  4  1  0  0  0  0
  3  5  1  0  0  0  0
  3  6  1  0  0  0  0
  4  7  2  0  0  0  0
  6  8  2  0  0  0  0
  7  9  1  0  0  0  0
  8 10  1  0  0  0  0
  9 11  1  0  0  0  0
  9 12  1  0  0  0  0
 10 13  1  0  0  0  0
 11 14  2  0  0  0  0
 11 15  1  0  0  0  0
 15 16  1  0  0  0  0
 15 17  1  0  0  0  0
 16 18  1  0  0  0  0
 16 19  2  0  0  0  0
 17 20  1  0  0  0  0
 18 21  2  0  0  0  0
 19 22  1  0  0  0  0
 20 23  2  0  0  0  0
 20 24  1  0  0  0  0
 22 25  1  0  0  0  0
 23 26  1  0  0  0  0
 24 27  2  0  0  0  0
 26 28  2  0  0  0  0
  7  8  1  0  0  0  0
 12 13  1  0  0  0  0
 21 22  1  0  0  0  0
 27 28  1  0  0  0  0
  4 29  1  0  0  0  0
  6 30  1  0  0  0  0
  9 31  1  0  0  0  0
 12 32  1  0  0  0  0
 12 33  1  0  0  0  0
 13 34  1  0  0  0  0
 13 35  1  0  0  0  0
 17 36  1  0  0  0  0
 17 37  1  0  0  0  0
 18 38  1  0  0  0  0
 19 39  1  0  0  0  0
 23 40  1  0  0  0  0
 24 41  1  0  0  0  0
 25 42  1  0  0  0  0
 25 43  1  0  0  0  0
 25 44  1  0  0  0  0
 27 45  1  0  0  0  0
 28 46  1  0  0  0  0
M  END
> <BIOSOLVEIT.HYDE_ESTIMATED_AFFINITY_LOWER_BOUNDARY [nM]>
809282.909983

> <BIOSOLVEIT.HYDE_ESTIMATED_AFFINITY_UPPER_BOUNDARY [nM]>
80407041.966100

> <BIOSOLVEIT.HYDE_LIGAND_EFFICIENCY range: ++, +, 0, -, -->
--

> <BIOSOLVEIT.HYDE_LIGAND_LIPOPHILIC_EFFICIENCY range: ++, +, 0, -, -->
--

> <BIOSOLVEIT.INTER_CLASH range: red, yellow, green>
green

> <BIOSOLVEIT.INTRA_CLASH range: red, yellow, green>
green

> <BIOSOLVEIT.LOGP>
3.7071

> <BIOSOLVEIT.MOLECULAR WEIGHT>
400.839

> <BIOSOLVEIT.MOLECULE_CHECKSUM>
LTExLjk0ODY7MC40MjY3MzU=

> <BIOSOLVEIT.TORSION_QUALITY range: red, yellow, green, not rotatable>
red

> <BIOSOLVEIT.TPSA>
60.25

> <BIOSOLVEIT.SEESAR_FAVORITE>
favorite

> <smc_score>
1.0

> <QED_score>
0.67

> <distance>
0.551

> <SimilarityPheSA_1>
0.669

> <Smiles>
Cn1cc(N(Cc2cccnc2)C(=O)C2CCOc3cc(F)c(Cl)cc32)cn1

> <Similarity_SkelSpheres>
0.729

> <Cluster No>
301.0

> <QueryID>
MAT-POS-090737b9-1

> <SimilarityPheSA>
0.6685

> <Postera series>
3-aminopyridine-like

> <PDB_code>
Mpro-x12735

> <Approach>
DGM_focussed_RL

> <ID>
20210618_560

> <SimilarityPheSA_2>
0.745

> <OPTIBRIUM.logD>
2.65468

> <OPTIBRIUM.BBB category>
-

> <OPTIBRIUM.logP>
2.65468

> <OPTIBRIUM.P-gp category>
no

> <OPTIBRIUM.logS>
1.19329

> <OPTIBRIUM.HIA category>
+

> <OPTIBRIUM.PPB90 category>
high

> <OPTIBRIUM.2D6 affinity category>
medium

> <OPTIBRIUM.hERG pIC50>
5.4684

> <OPTIBRIUM.2C9 pKi>
5.60578

> <OPTIBRIUM.BBB log([brain]:[blood])>
-0.290783

> <OPTIBRIUM.logS @ pH7.4>
1.19329

$$$$
Compound 578_1_1
haSeeSAR  07122114523D 1   1.00000     0.00000     0
SeeSAR 11.0.2 hazemaj
 47 49  0  0  0  0            999 V2000
   21.3259   -6.6798    3.5158 Cl  0  0  0  0  0  0  0  0  0  0  0  0
   21.1500   -8.3974    3.9476 C   0  0  0  0  0  0  0  0  0  0  0  0
   22.1804   -9.0486    4.6176 C   0  0  0  0  0  0  0  0  0  0  0  0
   19.9850   -9.0796    3.6145 C   0  0  0  0  0  0  0  0  0  0  0  0
   23.6666   -8.1639    5.0394 Cl  0  0  0  0  0  0  0  0  0  0  0  0
   22.0639  -10.3909    4.9638 C   0  0  0  0  0  0  0  0  0  0  0  0
   19.8723  -10.4213    3.9627 C   0  0  0  0  0  0  0  0  0  0  0  0
   20.9001  -11.0774    4.6320 C   0  0  0  0  0  0  0  0  0  0  0  0
   18.6007  -11.1714    3.6001 C   0  0  0  0  0  0  0  0  0  0  0  0
   17.5353  -10.9891    4.6705 C   0  0  0  0  0  0  0  0  0  0  0  0
   18.0410  -10.7112    2.2607 C   0  0  0  0  0  0  0  0  0  0  0  0
   18.9549  -12.6345    3.3969 C   0  0  0  0  0  0  0  0  0  0  0  0
   16.5669  -10.2596    4.4572 O   0  0  0  0  0  0  0  0  0  0  0  0
   17.6493  -11.6146    5.8307 N   0  0  0  0  0  0  0  0  0  0  0  0
   18.7251  -11.4438    1.1188 C   0  0  0  0  0  0  0  0  0  0  0  0
   18.0189  -13.3043    2.4092 C   0  0  0  0  0  0  0  0  0  0  0  0
   16.6197  -11.4384    6.8651 C   0  0  0  0  0  0  0  0  0  0  0  0
   18.3486  -12.8191    1.1144 O   0  0  0  0  0  0  0  0  0  0  0  0
   15.4260  -12.3244    6.5479 C   0  0  0  0  0  0  0  0  0  0  0  0
   14.1411  -11.5841    6.8863 C   0  0  0  0  0  0  0  0  0  0  0  0
   13.5842  -11.4700    8.1207 N   0  0  0  0  0  0  0  0  0  0  0  0
   13.3459  -10.9235    5.9996 C   0  0  0  0  0  0  0  0  0  0  0  0
   12.4444  -10.7323    7.9879 C   0  0  0  0  0  0  0  0  0  0  0  0
   14.1095  -12.0341    9.3729 C   0  0  0  0  0  0  0  0  0  0  0  0
   12.3090  -10.4089    6.7189 N   0  3  0  0  0  0  0  0  0  0  0  0
   19.2420   -8.6142    3.1335 H   0  0  0  0  0  0  0  0  0  0  0  0
   22.8069  -10.8564    5.4447 H   0  0  0  0  0  0  0  0  0  0  0  0
   20.8025  -12.0426    4.8747 H   0  0  0  0  0  0  0  0  0  0  0  0
   18.1946   -9.7281    2.1601 H   0  0  0  0  0  0  0  0  0  0  0  0
   17.0594  -10.8998    2.2317 H   0  0  0  0  0  0  0  0  0  0  0  0
   18.8927  -13.1084    4.2753 H   0  0  0  0  0  0  0  0  0  0  0  0
   19.8908  -12.6966    3.0502 H   0  0  0  0  0  0  0  0  0  0  0  0
   18.4358  -12.2072    6.0040 H   0  0  0  0  0  0  0  0  0  0  0  0
   19.7164  -11.3737    1.2293 H   0  0  0  0  0  0  0  0  0  0  0  0
   18.4561  -11.0257    0.2510 H   0  0  0  0  0  0  0  0  0  0  0  0
   17.0703  -13.0759    2.6283 H   0  0  0  0  0  0  0  0  0  0  0  0
   18.1392  -14.2965    2.4432 H   0  0  0  0  0  0  0  0  0  0  0  0
   16.3287  -10.4819    6.8862 H   0  0  0  0  0  0  0  0  0  0  0  0
   16.9956  -11.6921    7.7563 H   0  0  0  0  0  0  0  0  0  0  0  0
   15.4801  -13.1631    7.0898 H   0  0  0  0  0  0  0  0  0  0  0  0
   15.4314  -12.5553    5.5749 H   0  0  0  0  0  0  0  0  0  0  0  0
   13.4937  -10.8338    5.0146 H   0  0  0  0  0  0  0  0  0  0  0  0
   11.8195  -10.4805    8.7270 H   0  0  0  0  0  0  0  0  0  0  0  0
   13.4986  -11.7958   10.1279 H   0  0  0  0  0  0  0  0  0  0  0  0
   14.1669  -13.0291    9.2920 H   0  0  0  0  0  0  0  0  0  0  0  0
   15.0201  -11.6610    9.5503 H   0  0  0  0  0  0  0  0  0  0  0  0
   11.5585   -9.8673    6.3399 H   0  0  0  0  0  0  0  0  0  0  0  0
  1  2  1  0  0  0  0
  2  3  2  0  0  0  0
  2  4  1  0  0  0  0
  3  5  1  0  0  0  0
  3  6  1  0  0  0  0
  4  7  2  0  0  0  0
  6  8  2  0  0  0  0
  7  9  1  0  0  0  0
  9 10  1  0  0  0  0
  9 11  1  0  0  0  0
  9 12  1  0  0  0  0
 10 13  2  0  0  0  0
 10 14  1  0  0  0  0
 11 15  1  0  0  0  0
 12 16  1  0  0  0  0
 14 17  1  0  0  0  0
 15 18  1  0  0  0  0
 17 19  1  0  0  0  0
 19 20  1  0  0  0  0
 20 21  1  0  0  0  0
 20 22  2  0  0  0  0
 21 23  1  0  0  0  0
 21 24  1  0  0  0  0
 22 25  1  0  0  0  0
  7  8  1  0  0  0  0
 16 18  1  0  0  0  0
 23 25  2  0  0  0  0
  4 26  1  0  0  0  0
  6 27  1  0  0  0  0
  8 28  1  0  0  0  0
 11 29  1  0  0  0  0
 11 30  1  0  0  0  0
 12 31  1  0  0  0  0
 12 32  1  0  0  0  0
 14 33  1  0  0  0  0
 15 34  1  0  0  0  0
 15 35  1  0  0  0  0
 16 36  1  0  0  0  0
 16 37  1  0  0  0  0
 17 38  1  0  0  0  0
 17 39  1  0  0  0  0
 19 40  1  0  0  0  0
 19 41  1  0  0  0  0
 22 42  1  0  0  0  0
 23 43  1  0  0  0  0
 24 44  1  0  0  0  0
 24 45  1  0  0  0  0
 24 46  1  0  0  0  0
 25 47  1  0  0  0  0
M  CHG  1  25   1
M  END
> <BIOSOLVEIT.HYDE_ESTIMATED_AFFINITY_LOWER_BOUNDARY [nM]>
7282541.106299

> <BIOSOLVEIT.HYDE_ESTIMATED_AFFINITY_UPPER_BOUNDARY [nM]>
723563516.701498

> <BIOSOLVEIT.HYDE_LIGAND_EFFICIENCY range: ++, +, 0, -, -->
--

> <BIOSOLVEIT.HYDE_LIGAND_LIPOPHILIC_EFFICIENCY range: ++, +, 0, -, -->
--

> <BIOSOLVEIT.INTER_CLASH range: red, yellow, green>
green

> <BIOSOLVEIT.INTRA_CLASH range: red, yellow, green>
green

> <BIOSOLVEIT.LOGP>
2.5531

> <BIOSOLVEIT.MOLECULAR WEIGHT>
383.297

> <BIOSOLVEIT.MOLECULE_CHECKSUM>
LTYuNTAyMTE7MC4yNjAwODQ=

> <BIOSOLVEIT.TORSION_QUALITY range: red, yellow, green, not rotatable>
yellow

> <BIOSOLVEIT.TPSA>
57.4

> <BIOSOLVEIT.SEESAR_FAVORITE>
favorite

> <smc_score>
0.688

> <QED_score>
0.865

> <distance>
0.726

> <SimilarityPheSA_1>
0.638

> <Smiles>
Cn1cncc1CCNC(=O)C1(c2ccc(Cl)c(Cl)c2)CCOCC1

> <Similarity_SkelSpheres>
0.609

> <Cluster No>
310.0

> <QueryID>
JAG-UCB-a3ef7265-20

> <SimilarityPheSA>
0.6378

> <Postera series>
3-aminopyridine-like

> <PDB_code>
Mpro-x10324

> <Approach>
DGM_focussed_RL

> <ID>
20210618_577

> <SimilarityPheSA_2>
0.636

> <OPTIBRIUM.logD>
3.36767

> <OPTIBRIUM.BBB category>
-

> <OPTIBRIUM.logP>
3.36767

> <OPTIBRIUM.P-gp category>
yes

> <OPTIBRIUM.logS>
1.76358

> <OPTIBRIUM.HIA category>
+

> <OPTIBRIUM.PPB90 category>
high

> <OPTIBRIUM.2D6 affinity category>
medium

> <OPTIBRIUM.hERG pIC50>
4.65056

> <OPTIBRIUM.2C9 pKi>
5.26104

> <OPTIBRIUM.BBB log([brain]:[blood])>
-0.169965

> <OPTIBRIUM.logS @ pH7.4>
1.76358

$$$$
Compound 578_1_4
haSeeSAR  07122114523D 1   1.00000     0.00000     0
SeeSAR 11.0.2 hazemaj
 46 48  0  0  0  0            999 V2000
   21.2576   -6.5969    3.4641 Cl  0  0  0  0  0  0  0  0  0  0  0  0
   21.1325   -8.3203    3.8932 C   0  0  0  0  0  0  0  0  0  0  0  0
   22.1936   -8.9582    4.5264 C   0  0  0  0  0  0  0  0  0  0  0  0
   19.9676   -9.0165    3.5913 C   0  0  0  0  0  0  0  0  0  0  0  0
   23.6744   -8.0444    4.9008 Cl  0  0  0  0  0  0  0  0  0  0  0  0
   22.1059  -10.3042    4.8676 C   0  0  0  0  0  0  0  0  0  0  0  0
   19.8856  -10.3613    3.9342 C   0  0  0  0  0  0  0  0  0  0  0  0
   20.9432  -11.0059    4.5670 C   0  0  0  0  0  0  0  0  0  0  0  0
   18.6197  -11.1380    3.6124 C   0  0  0  0  0  0  0  0  0  0  0  0
   17.5753  -10.9559    4.7034 C   0  0  0  0  0  0  0  0  0  0  0  0
   18.0229  -10.7091    2.2786 C   0  0  0  0  0  0  0  0  0  0  0  0
   18.9941  -12.5982    3.4248 C   0  0  0  0  0  0  0  0  0  0  0  0
   16.5859  -10.2531    4.4971 O   0  0  0  0  0  0  0  0  0  0  0  0
   17.7303  -11.5529    5.8738 N   0  0  0  0  0  0  0  0  0  0  0  0
   18.6937  -11.4488    1.1336 C   0  0  0  0  0  0  0  0  0  0  0  0
   18.0480  -13.2995    2.4690 C   0  0  0  0  0  0  0  0  0  0  0  0
   16.7211  -11.3769    6.9281 C   0  0  0  0  0  0  0  0  0  0  0  0
   18.3407  -12.8302    1.1596 O   0  0  0  0  0  0  0  0  0  0  0  0
   15.5536  -12.3164    6.6738 C   0  0  0  0  0  0  0  0  0  0  0  0
   14.2463  -11.5774    6.9150 C   0  0  0  0  0  0  0  0  0  0  0  0
   13.6279  -11.4151    8.1141 N   0  0  0  0  0  0  0  0  0  0  0  0
   13.4895  -10.9667    5.9614 C   0  0  0  0  0  0  0  0  0  0  0  0
   12.4888  -10.6977    7.8925 C   0  0  0  0  0  0  0  0  0  0  0  0
   14.0961  -11.9163    9.4148 C   0  0  0  0  0  0  0  0  0  0  0  0
   12.4132  -10.4330    6.6050 N   0  0  0  0  0  0  0  0  0  0  0  0
   19.2036   -8.5588    3.1365 H   0  0  0  0  0  0  0  0  0  0  0  0
   22.8694  -10.7615    5.3235 H   0  0  0  0  0  0  0  0  0  0  0  0
   20.8677  -11.9740    4.8059 H   0  0  0  0  0  0  0  0  0  0  0  0
   18.1575   -9.7254    2.1589 H   0  0  0  0  0  0  0  0  0  0  0  0
   17.0441  -10.9145    2.2746 H   0  0  0  0  0  0  0  0  0  0  0  0
   18.9594  -13.0586    4.3118 H   0  0  0  0  0  0  0  0  0  0  0  0
   19.9231  -12.6504    3.0583 H   0  0  0  0  0  0  0  0  0  0  0  0
   18.5341  -12.1238    6.0413 H   0  0  0  0  0  0  0  0  0  0  0  0
   19.6860  -11.3606    1.2207 H   0  0  0  0  0  0  0  0  0  0  0  0
   18.3986  -11.0496    0.2655 H   0  0  0  0  0  0  0  0  0  0  0  0
   17.1008  -13.0833    2.7057 H   0  0  0  0  0  0  0  0  0  0  0  0
   18.1859  -14.2889    2.5162 H   0  0  0  0  0  0  0  0  0  0  0  0
   16.3953  -10.4314    6.9232 H   0  0  0  0  0  0  0  0  0  0  0  0
   17.1284  -11.5845    7.8175 H   0  0  0  0  0  0  0  0  0  0  0  0
   15.6139  -13.0984    7.2941 H   0  0  0  0  0  0  0  0  0  0  0  0
   15.5849  -12.6384    5.7275 H   0  0  0  0  0  0  0  0  0  0  0  0
   13.6851  -10.9193    4.9819 H   0  0  0  0  0  0  0  0  0  0  0  0
   11.8257  -10.4208    8.5879 H   0  0  0  0  0  0  0  0  0  0  0  0
   13.4462  -11.6519   10.1274 H   0  0  0  0  0  0  0  0  0  0  0  0
   14.1672  -12.9132    9.3818 H   0  0  0  0  0  0  0  0  0  0  0  0
   14.9931  -11.5247    9.6196 H   0  0  0  0  0  0  0  0  0  0  0  0
  1  2  1  0  0  0  0
  2  3  2  0  0  0  0
  2  4  1  0  0  0  0
  3  5  1  0  0  0  0
  3  6  1  0  0  0  0
  4  7  2  0  0  0  0
  6  8  2  0  0  0  0
  7  9  1  0  0  0  0
  9 10  1  0  0  0  0
  9 11  1  0  0  0  0
  9 12  1  0  0  0  0
 10 13  2  0  0  0  0
 10 14  1  0  0  0  0
 11 15  1  0  0  0  0
 12 16  1  0  0  0  0
 14 17  1  0  0  0  0
 15 18  1  0  0  0  0
 17 19  1  0  0  0  0
 19 20  1  0  0  0  0
 20 21  1  0  0  0  0
 20 22  2  0  0  0  0
 21 23  1  0  0  0  0
 21 24  1  0  0  0  0
 22 25  1  0  0  0  0
  7  8  1  0  0  0  0
 16 18  1  0  0  0  0
 23 25  2  0  0  0  0
  4 26  1  0  0  0  0
  6 27  1  0  0  0  0
  8 28  1  0  0  0  0
 11 29  1  0  0  0  0
 11 30  1  0  0  0  0
 12 31  1  0  0  0  0
 12 32  1  0  0  0  0
 14 33  1  0  0  0  0
 15 34  1  0  0  0  0
 15 35  1  0  0  0  0
 16 36  1  0  0  0  0
 16 37  1  0  0  0  0
 17 38  1  0  0  0  0
 17 39  1  0  0  0  0
 19 40  1  0  0  0  0
 19 41  1  0  0  0  0
 22 42  1  0  0  0  0
 23 43  1  0  0  0  0
 24 44  1  0  0  0  0
 24 45  1  0  0  0  0
 24 46  1  0  0  0  0
M  END
> <BIOSOLVEIT.HYDE_ESTIMATED_AFFINITY_LOWER_BOUNDARY [nM]>
8062034.294203

> <BIOSOLVEIT.HYDE_ESTIMATED_AFFINITY_UPPER_BOUNDARY [nM]>
801010773.648162

> <BIOSOLVEIT.HYDE_LIGAND_EFFICIENCY range: ++, +, 0, -, -->
--

> <BIOSOLVEIT.HYDE_LIGAND_LIPOPHILIC_EFFICIENCY range: ++, +, 0, -, -->
--

> <BIOSOLVEIT.INTER_CLASH range: red, yellow, green>
green

> <BIOSOLVEIT.INTRA_CLASH range: red, yellow, green>
green

> <BIOSOLVEIT.LOGP>
3.134

> <BIOSOLVEIT.MOLECULAR WEIGHT>
382.289

> <BIOSOLVEIT.MOLECULE_CHECKSUM>
LTYuMjUwMDM7MC4yNTAwMDE=

> <BIOSOLVEIT.TORSION_QUALITY range: red, yellow, green, not rotatable>
yellow

> <BIOSOLVEIT.TPSA>
56.15

> <BIOSOLVEIT.SEESAR_FAVORITE>
favorite

> <smc_score>
0.688

> <QED_score>
0.865

> <distance>
0.726

> <SimilarityPheSA_1>
0.638

> <Smiles>
Cn1cncc1CCNC(=O)C1(c2ccc(Cl)c(Cl)c2)CCOCC1

> <Similarity_SkelSpheres>
0.609

> <Cluster No>
310.0

> <QueryID>
JAG-UCB-a3ef7265-20

> <SimilarityPheSA>
0.6378

> <Postera series>
3-aminopyridine-like

> <PDB_code>
Mpro-x10324

> <Approach>
DGM_focussed_RL

> <ID>
20210618_577

> <SimilarityPheSA_2>
0.636

> <OPTIBRIUM.logD>
3.36767

> <OPTIBRIUM.BBB category>
-

> <OPTIBRIUM.logP>
3.36767

> <OPTIBRIUM.P-gp category>
yes

> <OPTIBRIUM.logS>
1.76358

> <OPTIBRIUM.HIA category>
+

> <OPTIBRIUM.PPB90 category>
high

> <OPTIBRIUM.2D6 affinity category>
medium

> <OPTIBRIUM.hERG pIC50>
4.65056

> <OPTIBRIUM.2C9 pKi>
5.26104

> <OPTIBRIUM.BBB log([brain]:[blood])>
-0.169965

> <OPTIBRIUM.logS @ pH7.4>
1.76358

$$$$
Compound 578_1_5
haSeeSAR  07122114523D 1   1.00000     0.00000     0
SeeSAR 11.0.2 hazemaj
 46 48  0  0  0  0            999 V2000
   21.2746   -6.6167    3.4763 Cl  0  0  0  0  0  0  0  0  0  0  0  0
   21.1354   -8.3398    3.9024 C   0  0  0  0  0  0  0  0  0  0  0  0
   22.1861   -8.9840    4.5468 C   0  0  0  0  0  0  0  0  0  0  0  0
   19.9703   -9.0294    3.5872 C   0  0  0  0  0  0  0  0  0  0  0  0
   23.6675   -8.0785    4.9384 Cl  0  0  0  0  0  0  0  0  0  0  0  0
   22.0872  -10.3298    4.8859 C   0  0  0  0  0  0  0  0  0  0  0  0
   19.8771  -10.3741    3.9279 C   0  0  0  0  0  0  0  0  0  0  0  0
   20.9242  -11.0248    4.5717 C   0  0  0  0  0  0  0  0  0  0  0  0
   18.6106  -11.1436    3.5914 C   0  0  0  0  0  0  0  0  0  0  0  0
   17.5613  -10.9701    4.6789 C   0  0  0  0  0  0  0  0  0  0  0  0
   18.0219  -10.6985    2.2592 C   0  0  0  0  0  0  0  0  0  0  0  0
   18.9819  -12.6027    3.3899 C   0  0  0  0  0  0  0  0  0  0  0  0
   16.5783  -10.2568    4.4776 O   0  0  0  0  0  0  0  0  0  0  0  0
   17.7049  -11.5858    5.8410 N   0  0  0  0  0  0  0  0  0  0  0  0
   18.6965  -11.4279    1.1097 C   0  0  0  0  0  0  0  0  0  0  0  0
   18.0386  -13.2910    2.4219 C   0  0  0  0  0  0  0  0  0  0  0  0
   16.6908  -11.4182    6.8919 C   0  0  0  0  0  0  0  0  0  0  0  0
   18.3394  -12.8085    1.1190 O   0  0  0  0  0  0  0  0  0  0  0  0
   15.5181  -12.3453    6.6169 C   0  0  0  0  0  0  0  0  0  0  0  0
   14.2149  -11.6054    6.8774 C   0  0  0  0  0  0  0  0  0  0  0  0
   13.5986  -11.4688    8.0809 N   0  0  0  0  0  0  0  0  0  0  0  0
   13.4603  -10.9680    5.9397 C   0  0  0  0  0  0  0  0  0  0  0  0
   12.4631  -10.7404    7.8779 C   0  0  0  0  0  0  0  0  0  0  0  0
   14.0655  -12.0037    9.3685 C   0  0  0  0  0  0  0  0  0  0  0  0
   12.3876  -10.4444    6.5973 N   0  0  0  0  0  0  0  0  0  0  0  0
   19.2139   -8.5672    3.1243 H   0  0  0  0  0  0  0  0  0  0  0  0
   22.8432  -10.7917    5.3497 H   0  0  0  0  0  0  0  0  0  0  0  0
   20.8408  -11.9927    4.8088 H   0  0  0  0  0  0  0  0  0  0  0  0
   18.1600   -9.7141    2.1507 H   0  0  0  0  0  0  0  0  0  0  0  0
   17.0426  -10.9011    2.2480 H   0  0  0  0  0  0  0  0  0  0  0  0
   18.9413  -13.0725    4.2717 H   0  0  0  0  0  0  0  0  0  0  0  0
   19.9125  -12.6537    3.0276 H   0  0  0  0  0  0  0  0  0  0  0  0
   18.5033  -12.1652    6.0045 H   0  0  0  0  0  0  0  0  0  0  0  0
   19.6886  -11.3436    1.2029 H   0  0  0  0  0  0  0  0  0  0  0  0
   18.4070  -11.0186    0.2445 H   0  0  0  0  0  0  0  0  0  0  0  0
   17.0908  -13.0745    2.6562 H   0  0  0  0  0  0  0  0  0  0  0  0
   18.1733  -14.2812    2.4592 H   0  0  0  0  0  0  0  0  0  0  0  0
   16.3718  -10.4704    6.8992 H   0  0  0  0  0  0  0  0  0  0  0  0
   17.0913  -11.6420    7.7804 H   0  0  0  0  0  0  0  0  0  0  0  0
   15.5749  -13.1421    7.2183 H   0  0  0  0  0  0  0  0  0  0  0  0
   15.5465  -12.6448    5.6632 H   0  0  0  0  0  0  0  0  0  0  0  0
   13.6551  -10.8980    4.9613 H   0  0  0  0  0  0  0  0  0  0  0  0
   11.8023  -10.4767    8.5806 H   0  0  0  0  0  0  0  0  0  0  0  0
   13.4179  -11.7531   10.0881 H   0  0  0  0  0  0  0  0  0  0  0  0
   14.1314  -12.9999    9.3114 H   0  0  0  0  0  0  0  0  0  0  0  0
   14.9648  -11.6218    9.5817 H   0  0  0  0  0  0  0  0  0  0  0  0
  1  2  1  0  0  0  0
  2  3  2  0  0  0  0
  2  4  1  0  0  0  0
  3  5  1  0  0  0  0
  3  6  1  0  0  0  0
  4  7  2  0  0  0  0
  6  8  2  0  0  0  0
  7  9  1  0  0  0  0
  9 10  1  0  0  0  0
  9 11  1  0  0  0  0
  9 12  1  0  0  0  0
 10 13  2  0  0  0  0
 10 14  1  0  0  0  0
 11 15  1  0  0  0  0
 12 16  1  0  0  0  0
 14 17  1  0  0  0  0
 15 18  1  0  0  0  0
 17 19  1  0  0  0  0
 19 20  1  0  0  0  0
 20 21  1  0  0  0  0
 20 22  2  0  0  0  0
 21 23  1  0  0  0  0
 21 24  1  0  0  0  0
 22 25  1  0  0  0  0
  7  8  1  0  0  0  0
 16 18  1  0  0  0  0
 23 25  2  0  0  0  0
  4 26  1  0  0  0  0
  6 27  1  0  0  0  0
  8 28  1  0  0  0  0
 11 29  1  0  0  0  0
 11 30  1  0  0  0  0
 12 31  1  0  0  0  0
 12 32  1  0  0  0  0
 14 33  1  0  0  0  0
 15 34  1  0  0  0  0
 15 35  1  0  0  0  0
 16 36  1  0  0  0  0
 16 37  1  0  0  0  0
 17 38  1  0  0  0  0
 17 39  1  0  0  0  0
 19 40  1  0  0  0  0
 19 41  1  0  0  0  0
 22 42  1  0  0  0  0
 23 43  1  0  0  0  0
 24 44  1  0  0  0  0
 24 45  1  0  0  0  0
 24 46  1  0  0  0  0
M  END
> <BIOSOLVEIT.HYDE_ESTIMATED_AFFINITY_LOWER_BOUNDARY [nM]>
9276855.384029

> <BIOSOLVEIT.HYDE_ESTIMATED_AFFINITY_UPPER_BOUNDARY [nM]>
921710431.513146

> <BIOSOLVEIT.HYDE_LIGAND_EFFICIENCY range: ++, +, 0, -, -->
--

> <BIOSOLVEIT.HYDE_LIGAND_LIPOPHILIC_EFFICIENCY range: ++, +, 0, -, -->
--

> <BIOSOLVEIT.INTER_CLASH range: red, yellow, green>
green

> <BIOSOLVEIT.INTRA_CLASH range: red, yellow, green>
green

> <BIOSOLVEIT.LOGP>
3.134

> <BIOSOLVEIT.MOLECULAR WEIGHT>
382.289

> <BIOSOLVEIT.MOLECULE_CHECKSUM>
LTUuOTAyMDk7MC4yMzYwODQ=

> <BIOSOLVEIT.TORSION_QUALITY range: red, yellow, green, not rotatable>
yellow

> <BIOSOLVEIT.TPSA>
56.15

> <BIOSOLVEIT.SEESAR_FAVORITE>
favorite

> <smc_score>
0.688

> <QED_score>
0.865

> <distance>
0.726

> <SimilarityPheSA_1>
0.638

> <Smiles>
Cn1cncc1CCNC(=O)C1(c2ccc(Cl)c(Cl)c2)CCOCC1

> <Similarity_SkelSpheres>
0.609

> <Cluster No>
310.0

> <QueryID>
JAG-UCB-a3ef7265-20

> <SimilarityPheSA>
0.6378

> <Postera series>
3-aminopyridine-like

> <PDB_code>
Mpro-x10324

> <Approach>
DGM_focussed_RL

> <ID>
20210618_577

> <SimilarityPheSA_2>
0.636

> <OPTIBRIUM.logD>
3.36767

> <OPTIBRIUM.BBB category>
-

> <OPTIBRIUM.logP>
3.36767

> <OPTIBRIUM.P-gp category>
yes

> <OPTIBRIUM.logS>
1.76358

> <OPTIBRIUM.HIA category>
+

> <OPTIBRIUM.PPB90 category>
high

> <OPTIBRIUM.2D6 affinity category>
medium

> <OPTIBRIUM.hERG pIC50>
4.65056

> <OPTIBRIUM.2C9 pKi>
5.26104

> <OPTIBRIUM.BBB log([brain]:[blood])>
-0.169965

> <OPTIBRIUM.logS @ pH7.4>
1.76358

$$$$
Compound 481_1_1
haSeeSAR  07122114523D 1   1.00000     0.00000     0
SeeSAR 11.0.2 hazemaj
 39 41  0  0  0  0            999 V2000
   21.3209   -6.1980    3.3610 Cl  0  0  0  0  0  0  0  0  0  0  0  0
   21.4796   -7.8953    3.8746 C   0  0  0  0  0  0  0  0  0  0  0  0
   22.7276   -8.4044    4.2172 C   0  0  0  0  0  0  0  0  0  0  0  0
   20.3480   -8.7006    3.9306 C   0  0  0  0  0  0  0  0  0  0  0  0
   24.1610   -7.3526    4.1360 Cl  0  0  0  0  0  0  0  0  0  0  0  0
   22.8628   -9.7289    4.6214 C   0  0  0  0  0  0  0  0  0  0  0  0
   20.4889  -10.0234    4.3347 C   0  0  0  0  0  0  0  0  0  0  0  0
   21.7339  -10.5394    4.6782 C   0  0  0  0  0  0  0  0  0  0  0  0
   19.2625  -10.9182    4.4024 C   0  0  0  0  0  0  0  0  0  0  0  0
   18.8296  -11.2603    3.0395 N   0  3  2  0  0  0  0  0  0  0  0  0
   17.4554  -10.8345    2.7563 C   0  0  0  0  0  0  0  0  0  0  0  0
   18.7949  -12.7055    2.8043 C   0  0  0  0  0  0  0  0  0  0  0  0
   16.5636  -12.0193    3.0941 C   0  0  1  0  0  0  0  0  0  0  0  0
   17.5036  -13.1475    3.4639 C   0  0  0  0  0  0  0  0  0  0  0  0
   15.6260  -11.7266    4.2576 C   0  0  0  0  0  0  0  0  0  0  0  0
   15.6707  -10.6348    4.8244 O   0  0  0  0  0  0  0  0  0  0  0  0
   14.7635  -12.6457    4.6596 N   0  0  0  0  0  0  0  0  0  0  0  0
   13.5435  -12.2599    5.2272 C   0  0  0  0  0  0  0  0  0  0  0  0
   13.0599  -10.9395    5.3424 C   0  0  0  0  0  0  0  0  0  0  0  0
   12.6063  -13.0938    5.7647 C   0  0  0  0  0  0  0  0  0  0  0  0
   11.8902  -11.0343    5.9256 N   0  0  0  0  0  0  0  0  0  0  0  0
   11.5914  -12.2927    6.2006 N   0  0  0  0  0  0  0  0  0  0  0  0
   19.4499   -8.3356    3.6850 H   0  0  0  0  0  0  0  0  0  0  0  0
   23.7606  -10.0937    4.8682 H   0  0  0  0  0  0  0  0  0  0  0  0
   21.8174  -11.4934    4.9660 H   0  0  0  0  0  0  0  0  0  0  0  0
   18.5246  -10.4370    4.8756 H   0  0  0  0  0  0  0  0  0  0  0  0
   19.4877  -11.7554    4.9007 H   0  0  0  0  0  0  0  0  0  0  0  0
   17.3595  -10.5933    1.7905 H   0  0  0  0  0  0  0  0  0  0  0  0
   17.2133  -10.0464    3.3223 H   0  0  0  0  0  0  0  0  0  0  0  0
   19.5825  -13.1543    3.2264 H   0  0  0  0  0  0  0  0  0  0  0  0
   18.7819  -12.9069    1.8249 H   0  0  0  0  0  0  0  0  0  0  0  0
   16.0293  -12.2777    2.2893 H   0  0  0  0  0  0  0  0  0  0  0  0
   17.6087  -13.2232    4.4555 H   0  0  0  0  0  0  0  0  0  0  0  0
   17.1867  -14.0210    3.0946 H   0  0  0  0  0  0  0  0  0  0  0  0
   14.9830  -13.6160    4.5578 H   0  0  0  0  0  0  0  0  0  0  0  0
   13.5164  -10.1024    5.0408 H   0  0  0  0  0  0  0  0  0  0  0  0
   12.6538  -14.0908    5.8266 H   0  0  0  0  0  0  0  0  0  0  0  0
   19.4491  -10.8340    2.3802 H   0  0  0  0  0  0  0  0  0  0  0  0
   11.2996  -10.2552    6.1356 H   0  0  0  0  0  0  0  0  0  0  0  0
  1  2  1  0  0  0  0
  2  3  2  0  0  0  0
  2  4  1  0  0  0  0
  3  5  1  0  0  0  0
  3  6  1  0  0  0  0
  4  7  2  0  0  0  0
  6  8  2  0  0  0  0
  7  9  1  0  0  0  0
  9 10  1  0  0  0  0
 10 11  1  0  0  0  0
 10 12  1  0  0  0  0
 11 13  1  0  0  0  0
 12 14  1  0  0  0  0
 13 15  1  0  0  0  0
 15 16  2  0  0  0  0
 15 17  1  0  0  0  0
 17 18  1  0  0  0  0
 18 19  2  0  0  0  0
 18 20  1  0  0  0  0
 19 21  1  0  0  0  0
 20 22  2  0  0  0  0
  7  8  1  0  0  0  0
 13 14  1  0  0  0  0
 21 22  1  0  0  0  0
  4 23  1  0  0  0  0
  6 24  1  0  0  0  0
  8 25  1  0  0  0  0
  9 26  1  0  0  0  0
  9 27  1  0  0  0  0
 11 28  1  0  0  0  0
 11 29  1  0  0  0  0
 12 30  1  0  0  0  0
 12 31  1  0  0  0  0
 13 32  1  0  0  0  0
 14 33  1  0  0  0  0
 14 34  1  0  0  0  0
 17 35  1  0  0  0  0
 19 36  1  0  0  0  0
 20 37  1  0  0  0  0
 21 39  1  0  0  0  0
 10 38  1  0  0  0  0
M  CHG  1  10   1
M  END
> <BIOSOLVEIT.HYDE_ESTIMATED_AFFINITY_LOWER_BOUNDARY [nM]>
4800664663.613873

> <BIOSOLVEIT.HYDE_ESTIMATED_AFFINITY_UPPER_BOUNDARY [nM]>
476974418105.854797

> <BIOSOLVEIT.HYDE_LIGAND_EFFICIENCY range: ++, +, 0, -, -->
--

> <BIOSOLVEIT.HYDE_LIGAND_LIPOPHILIC_EFFICIENCY range: ++, +, 0, -, -->
--

> <BIOSOLVEIT.INTER_CLASH range: red, yellow, green>
green

> <BIOSOLVEIT.INTRA_CLASH range: red, yellow, green>
red

> <BIOSOLVEIT.LOGP>
1.76

> <BIOSOLVEIT.MOLECULAR WEIGHT>
340.232

> <BIOSOLVEIT.MOLECULE_CHECKSUM>
OS41ODg4Nzsw

> <BIOSOLVEIT.TORSION_QUALITY range: red, yellow, green, not rotatable>
green

> <BIOSOLVEIT.TPSA>
62.22

> <BIOSOLVEIT.SEESAR_FAVORITE>
favorite

> <smc_score>
0.563

> <QED_score>
0.899

> <distance>
0.701

> <SimilarityPheSA_1>
0.638

> <Smiles>
O=C(Nc1cn[nH]c1)C1CCN(Cc2ccc(Cl)c(Cl)c2)C1

> <Similarity_SkelSpheres>
0.613

> <Cluster No>
252.0

> <QueryID>
JAG-UCB-a3ef7265-20

> <SimilarityPheSA>
0.6381

> <Postera series>
3-aminopyridine-like

> <PDB_code>
Mpro-x10324

> <Approach>
DGM_focussed_RL

> <ID>
20210618_480

> <SimilarityPheSA_2>
0.637

> <OPTIBRIUM.logD>
1.46323

> <OPTIBRIUM.BBB category>
-

> <OPTIBRIUM.logP>
1.85184

> <OPTIBRIUM.P-gp category>
no

> <OPTIBRIUM.logS>
3.13758

> <OPTIBRIUM.HIA category>
+

> <OPTIBRIUM.PPB90 category>
high

> <OPTIBRIUM.2D6 affinity category>
low

> <OPTIBRIUM.hERG pIC50>
4.33269

> <OPTIBRIUM.2C9 pKi>
4.70582

> <OPTIBRIUM.BBB log([brain]:[blood])>
-0.43677

> <OPTIBRIUM.logS @ pH7.4>
2.34786

$$$$
Compound 481_1_4
haSeeSAR  07122114523D 1   1.00000     0.00000     0
SeeSAR 11.0.2 hazemaj
 39 41  0  0  0  0            999 V2000
   20.1236   -6.7732    2.9832 Cl  0  0  0  0  0  0  0  0  0  0  0  0
   20.4020   -8.4243    3.5886 C   0  0  0  0  0  0  0  0  0  0  0  0
   21.6705   -8.8047    4.0133 C   0  0  0  0  0  0  0  0  0  0  0  0
   19.3425   -9.3230    3.6334 C   0  0  0  0  0  0  0  0  0  0  0  0
   23.0104   -7.6351    3.9446 Cl  0  0  0  0  0  0  0  0  0  0  0  0
   21.8988  -10.0918    4.4896 C   0  0  0  0  0  0  0  0  0  0  0  0
   19.5764  -10.6080    4.1099 C   0  0  0  0  0  0  0  0  0  0  0  0
   20.8425  -10.9955    4.5356 C   0  0  0  0  0  0  0  0  0  0  0  0
   18.4298  -11.6036    4.1665 C   0  0  0  0  0  0  0  0  0  0  0  0
   18.2081  -12.1725    2.8288 N   0  3  2  0  0  0  0  0  0  0  0  0
   17.0452  -11.5996    2.1394 C   0  0  0  0  0  0  0  0  0  0  0  0
   17.8845  -13.6025    2.8947 C   0  0  0  0  0  0  0  0  0  0  0  0
   15.8341  -12.3264    2.6900 C   0  0  1  0  0  0  0  0  0  0  0  0
   16.3773  -13.7414    2.7753 C   0  0  0  0  0  0  0  0  0  0  0  0
   15.3375  -11.8098    4.0338 C   0  0  0  0  0  0  0  0  0  0  0  0
   15.6745  -10.6928    4.4264 O   0  0  0  0  0  0  0  0  0  0  0  0
   14.5441  -12.5615    4.7793 N   0  0  0  0  0  0  0  0  0  0  0  0
   13.6079  -11.9617    5.6297 C   0  0  0  0  0  0  0  0  0  0  0  0
   13.3357  -12.3349    6.9629 C   0  0  0  0  0  0  0  0  0  0  0  0
   12.7978  -10.9081    5.3198 C   0  0  0  0  0  0  0  0  0  0  0  0
   12.4033  -11.5153    7.3828 N   0  0  0  0  0  0  0  0  0  0  0  0
   12.0513  -10.6628    6.4354 N   0  0  0  0  0  0  0  0  0  0  0  0
   18.4298   -9.0506    3.3289 H   0  0  0  0  0  0  0  0  0  0  0  0
   22.8112  -10.3639    4.7953 H   0  0  0  0  0  0  0  0  0  0  0  0
   20.9934  -11.9240    4.8748 H   0  0  0  0  0  0  0  0  0  0  0  0
   17.5992  -11.1384    4.4728 H   0  0  0  0  0  0  0  0  0  0  0  0
   18.6565  -12.3372    4.8074 H   0  0  0  0  0  0  0  0  0  0  0  0
   17.1193  -11.7456    1.1528 H   0  0  0  0  0  0  0  0  0  0  0  0
   16.9776  -10.6197    2.3272 H   0  0  0  0  0  0  0  0  0  0  0  0
   18.1933  -13.9817    3.7670 H   0  0  0  0  0  0  0  0  0  0  0  0
   18.3316  -14.0877    2.1433 H   0  0  0  0  0  0  0  0  0  0  0  0
   15.0905  -12.2925    2.0223 H   0  0  0  0  0  0  0  0  0  0  0  0
   16.0064  -14.2085    3.5780 H   0  0  0  0  0  0  0  0  0  0  0  0
   16.1396  -14.2555    1.9512 H   0  0  0  0  0  0  0  0  0  0  0  0
   14.6131  -13.5581    4.7352 H   0  0  0  0  0  0  0  0  0  0  0  0
   13.7661  -13.0738    7.4813 H   0  0  0  0  0  0  0  0  0  0  0  0
   12.7590  -10.4153    4.4505 H   0  0  0  0  0  0  0  0  0  0  0  0
   11.3517   -9.9535    6.5222 H   0  0  0  0  0  0  0  0  0  0  0  0
   19.0266  -12.0406    2.2697 H   0  0  0  0  0  0  0  0  0  0  0  0
  1  2  1  0  0  0  0
  2  3  2  0  0  0  0
  2  4  1  0  0  0  0
  3  5  1  0  0  0  0
  3  6  1  0  0  0  0
  4  7  2  0  0  0  0
  6  8  2  0  0  0  0
  7  9  1  0  0  0  0
  9 10  1  0  0  0  0
 10 11  1  0  0  0  0
 10 12  1  0  0  0  0
 11 13  1  0  0  0  0
 12 14  1  0  0  0  0
 13 15  1  0  0  0  0
 15 16  2  0  0  0  0
 15 17  1  0  0  0  0
 17 18  1  0  0  0  0
 18 19  1  0  0  0  0
 18 20  2  0  0  0  0
 19 21  2  0  0  0  0
 20 22  1  0  0  0  0
  7  8  1  0  0  0  0
 13 14  1  0  0  0  0
 21 22  1  0  0  0  0
  4 23  1  0  0  0  0
  6 24  1  0  0  0  0
  8 25  1  0  0  0  0
  9 26  1  0  0  0  0
  9 27  1  0  0  0  0
 11 28  1  0  0  0  0
 11 29  1  0  0  0  0
 12 30  1  0  0  0  0
 12 31  1  0  0  0  0
 13 32  1  0  0  0  0
 14 33  1  0  0  0  0
 14 34  1  0  0  0  0
 17 35  1  0  0  0  0
 19 36  1  0  0  0  0
 20 37  1  0  0  0  0
 22 38  1  0  0  0  0
 10 39  1  0  0  0  0
M  CHG  1  10   1
M  END
> <BIOSOLVEIT.HYDE_ESTIMATED_AFFINITY_LOWER_BOUNDARY [nM]>
478395926.947680

> <BIOSOLVEIT.HYDE_ESTIMATED_AFFINITY_UPPER_BOUNDARY [nM]>
47531463842.822975

> <BIOSOLVEIT.HYDE_LIGAND_EFFICIENCY range: ++, +, 0, -, -->
--

> <BIOSOLVEIT.HYDE_LIGAND_LIPOPHILIC_EFFICIENCY range: ++, +, 0, -, -->
--

> <BIOSOLVEIT.INTER_CLASH range: red, yellow, green>
green

> <BIOSOLVEIT.INTRA_CLASH range: red, yellow, green>
green

> <BIOSOLVEIT.LOGP>
1.76

> <BIOSOLVEIT.MOLECULAR WEIGHT>
340.232

> <BIOSOLVEIT.MOLECULE_CHECKSUM>
My44NzIyMjsw

> <BIOSOLVEIT.TORSION_QUALITY range: red, yellow, green, not rotatable>
yellow

> <BIOSOLVEIT.TPSA>
62.22

> <BIOSOLVEIT.SEESAR_FAVORITE>
favorite

> <smc_score>
0.563

> <QED_score>
0.899

> <distance>
0.701

> <SimilarityPheSA_1>
0.638

> <Smiles>
O=C(Nc1cn[nH]c1)C1CCN(Cc2ccc(Cl)c(Cl)c2)C1

> <Similarity_SkelSpheres>
0.613

> <Cluster No>
252.0

> <QueryID>
JAG-UCB-a3ef7265-20

> <SimilarityPheSA>
0.6381

> <Postera series>
3-aminopyridine-like

> <PDB_code>
Mpro-x10324

> <Approach>
DGM_focussed_RL

> <ID>
20210618_480

> <SimilarityPheSA_2>
0.637

> <OPTIBRIUM.logD>
1.46323

> <OPTIBRIUM.BBB category>
-

> <OPTIBRIUM.logP>
1.85184

> <OPTIBRIUM.P-gp category>
no

> <OPTIBRIUM.logS>
3.13758

> <OPTIBRIUM.HIA category>
+

> <OPTIBRIUM.PPB90 category>
high

> <OPTIBRIUM.2D6 affinity category>
low

> <OPTIBRIUM.hERG pIC50>
4.33269

> <OPTIBRIUM.2C9 pKi>
4.70582

> <OPTIBRIUM.BBB log([brain]:[blood])>
-0.43677

> <OPTIBRIUM.logS @ pH7.4>
2.34786

$$$$
Compound 619_1_02
haSeeSAR  07122114523D 1   1.00000     0.00000     0
SeeSAR 11.0.2 hazemaj
 41 43  0  0  0  0            999 V2000
   19.7727   -6.6084    2.8779 Cl  0  0  0  0  0  0  0  0  0  0  0  0
   19.7806   -8.3652    3.1627 C   0  0  0  0  0  0  0  0  0  0  0  0
   20.9504   -8.9902    3.5821 C   0  0  0  0  0  0  0  0  0  0  0  0
   18.6193   -9.1042    2.9655 C   0  0  0  0  0  0  0  0  0  0  0  0
   22.4304   -8.0330    3.8319 Cl  0  0  0  0  0  0  0  0  0  0  0  0
   20.9786  -10.3623    3.8095 C   0  0  0  0  0  0  0  0  0  0  0  0
   18.6516  -10.4755    3.1944 C   0  0  0  0  0  0  0  0  0  0  0  0
   19.8189  -11.1055    3.6131 C   0  0  0  0  0  0  0  0  0  0  0  0
   17.3845  -11.2876    2.9797 C   0  0  0  0  0  0  0  0  0  0  0  0
   16.6761  -11.4824    4.3103 C   0  0  0  0  0  0  0  0  0  0  0  0
   16.1300  -10.5273    4.8625 O   0  0  0  0  0  0  0  0  0  0  0  0
   16.6445  -12.7487    4.9081 N   0  0  0  0  0  0  0  0  0  0  0  0
   15.4516  -13.3239    5.5459 C   0  0  2  0  0  0  0  0  0  0  0  0
   17.8007  -13.6463    4.9552 C   0  0  0  0  0  0  0  0  0  0  0  0
   15.5600  -14.8265    5.3312 C   0  0  0  0  0  0  0  0  0  0  0  0
   14.1716  -12.7815    4.9281 C   0  0  0  0  0  0  0  0  0  0  0  0
   17.5447  -14.7405    3.9313 C   0  0  0  0  0  0  0  0  0  0  0  0
   16.1217  -15.1039    3.9961 N   0  3  0  0  0  0  0  0  0  0  0  0
   13.5299  -11.8506    5.8680 N   0  0  0  0  0  0  0  0  0  0  0  0
   12.6876  -10.8944    5.5574 N   0  0  0  0  0  0  0  0  0  0  0  0
   13.7260  -11.8388    7.2153 C   0  0  0  0  0  0  0  0  0  0  0  0
   12.3201  -10.2722    6.5965 N   0  0  0  0  0  0  0  0  0  0  0  0
   12.9438  -10.8227    7.6763 C   0  0  0  0  0  0  0  0  0  0  0  0
   17.7765   -8.6579    2.6647 H   0  0  0  0  0  0  0  0  0  0  0  0
   21.8215  -10.8085    4.1103 H   0  0  0  0  0  0  0  0  0  0  0  0
   19.8247  -12.0926    3.7729 H   0  0  0  0  0  0  0  0  0  0  0  0
   17.6214  -12.1795    2.5945 H   0  0  0  0  0  0  0  0  0  0  0  0
   16.7802  -10.8017    2.3483 H   0  0  0  0  0  0  0  0  0  0  0  0
   15.4638  -13.1224    6.5253 H   0  0  0  0  0  0  0  0  0  0  0  0
   17.8921  -14.0432    5.8685 H   0  0  0  0  0  0  0  0  0  0  0  0
   18.6351  -13.1460    4.7240 H   0  0  0  0  0  0  0  0  0  0  0  0
   14.6511  -15.2377    5.4003 H   0  0  0  0  0  0  0  0  0  0  0  0
   16.1576  -15.2190    6.0303 H   0  0  0  0  0  0  0  0  0  0  0  0
   13.5490  -13.5391    4.7320 H   0  0  0  0  0  0  0  0  0  0  0  0
   14.3891  -12.3005    4.0787 H   0  0  0  0  0  0  0  0  0  0  0  0
   18.1084  -15.5394    4.1411 H   0  0  0  0  0  0  0  0  0  0  0  0
   17.7677  -14.4064    3.0155 H   0  0  0  0  0  0  0  0  0  0  0  0
   15.6183  -14.5736    3.3140 H   0  0  0  0  0  0  0  0  0  0  0  0
   14.3157  -12.4441    7.7501 H   0  0  0  0  0  0  0  0  0  0  0  0
   12.8458  -10.5346    8.6288 H   0  0  0  0  0  0  0  0  0  0  0  0
   16.0249  -16.0792    3.7979 H   0  0  0  0  0  0  0  0  0  0  0  0
  1  2  1  0  0  0  0
  2  3  2  0  0  0  0
  2  4  1  0  0  0  0
  3  5  1  0  0  0  0
  3  6  1  0  0  0  0
  4  7  2  0  0  0  0
  6  8  2  0  0  0  0
  7  9  1  0  0  0  0
  9 10  1  0  0  0  0
 10 11  2  0  0  0  0
 10 12  1  0  0  0  0
 12 13  1  0  0  0  0
 12 14  1  0  0  0  0
 13 15  1  0  0  0  0
 13 16  1  0  0  0  0
 14 17  1  0  0  0  0
 15 18  1  0  0  0  0
 16 19  1  0  0  0  0
 19 20  1  0  0  0  0
 19 21  1  0  0  0  0
 20 22  2  0  0  0  0
 21 23  2  0  0  0  0
  7  8  1  0  0  0  0
 17 18  1  0  0  0  0
 22 23  1  0  0  0  0
  4 24  1  0  0  0  0
  6 25  1  0  0  0  0
  8 26  1  0  0  0  0
  9 27  1  0  0  0  0
  9 28  1  0  0  0  0
 13 29  1  0  0  0  0
 14 30  1  0  0  0  0
 14 31  1  0  0  0  0
 15 32  1  0  0  0  0
 15 33  1  0  0  0  0
 16 34  1  0  0  0  0
 16 35  1  0  0  0  0
 17 36  1  0  0  0  0
 17 37  1  0  0  0  0
 18 38  1  0  0  0  0
 21 39  1  0  0  0  0
 23 40  1  0  0  0  0
 18 41  1  0  0  0  0
M  CHG  1  18   1
M  END
> <BIOSOLVEIT.HYDE_ESTIMATED_AFFINITY_LOWER_BOUNDARY [nM]>
7859969.799837

> <BIOSOLVEIT.HYDE_ESTIMATED_AFFINITY_UPPER_BOUNDARY [nM]>
780934471.433134

> <BIOSOLVEIT.HYDE_LIGAND_EFFICIENCY range: ++, +, 0, -, -->
--

> <BIOSOLVEIT.HYDE_LIGAND_LIPOPHILIC_EFFICIENCY range: ++, +, 0, -, -->
--

> <BIOSOLVEIT.INTER_CLASH range: red, yellow, green>
green

> <BIOSOLVEIT.INTRA_CLASH range: red, yellow, green>
green

> <BIOSOLVEIT.LOGP>
0.6018

> <BIOSOLVEIT.MOLECULAR WEIGHT>
355.247

> <BIOSOLVEIT.MOLECULE_CHECKSUM>
LTYuMzEyOTY7MC4yNzQ0NzY=

> <BIOSOLVEIT.TORSION_QUALITY range: red, yellow, green, not rotatable>
red

> <BIOSOLVEIT.TPSA>
67.63

> <BIOSOLVEIT.SEESAR_FAVORITE>
favorite

> <smc_score>
0.563

> <QED_score>
0.907

> <distance>
0.682

> <SimilarityPheSA_1>
0.632

> <Smiles>
O=C(Cc1ccc(Cl)c(Cl)c1)N1CCNCC1Cn1ccnn1

> <Similarity_SkelSpheres>
0.653

> <Cluster No>
339.0

> <QueryID>
MAT-POS-f7918075-5

> <SimilarityPheSA>
0.6315

> <Postera series>
3-aminopyridine-like

> <PDB_code>
Mpro-x11499

> <Approach>
DGM_focussed_RL

> <ID>
20210618_618

> <SimilarityPheSA_2>
0.666

> <OPTIBRIUM.logD>
0.661721

> <OPTIBRIUM.BBB category>
-

> <OPTIBRIUM.logP>
1.91043

> <OPTIBRIUM.P-gp category>
no

> <OPTIBRIUM.logS>
4.04391

> <OPTIBRIUM.HIA category>
+

> <OPTIBRIUM.PPB90 category>
low

> <OPTIBRIUM.2D6 affinity category>
medium

> <OPTIBRIUM.hERG pIC50>
5.05354

> <OPTIBRIUM.2C9 pKi>
4.72126

> <OPTIBRIUM.BBB log([brain]:[blood])>
-0.050399

> <OPTIBRIUM.logS @ pH7.4>
2.39814

$$$$
Compound 619_1_05
haSeeSAR  07122114523D 1   1.00000     0.00000     0
SeeSAR 11.0.2 hazemaj
 41 43  0  0  0  0            999 V2000
   20.4665   -6.6432    3.1218 Cl  0  0  0  0  0  0  0  0  0  0  0  0
   20.6848   -8.3203    3.6759 C   0  0  0  0  0  0  0  0  0  0  0  0
   21.9439   -8.7557    4.0757 C   0  0  0  0  0  0  0  0  0  0  0  0
   19.5975   -9.1866    3.7072 C   0  0  0  0  0  0  0  0  0  0  0  0
   23.3279   -7.6369    4.0319 Cl  0  0  0  0  0  0  0  0  0  0  0  0
   22.1365  -10.0627    4.5114 C   0  0  0  0  0  0  0  0  0  0  0  0
   19.7942  -10.4922    4.1439 C   0  0  0  0  0  0  0  0  0  0  0  0
   21.0514  -10.9329    4.5440 C   0  0  0  0  0  0  0  0  0  0  0  0
   18.6085  -11.4429    4.1794 C   0  0  0  0  0  0  0  0  0  0  0  0
   17.5685  -10.9196    5.1566 C   0  0  0  0  0  0  0  0  0  0  0  0
   16.6008  -10.2814    4.7422 O   0  0  0  0  0  0  0  0  0  0  0  0
   17.7111  -11.1635    6.5285 N   0  0  0  0  0  0  0  0  0  0  0  0
   16.5880  -11.4631    7.4282 C   0  0  2  0  0  0  0  0  0  0  0  0
   19.0031  -11.1553    7.2179 C   0  0  0  0  0  0  0  0  0  0  0  0
   17.1574  -12.3862    8.4958 C   0  0  0  0  0  0  0  0  0  0  0  0
   15.4432  -12.1371    6.6871 C   0  0  0  0  0  0  0  0  0  0  0  0
   19.3598  -12.6074    7.4924 C   0  0  0  0  0  0  0  0  0  0  0  0
   18.1328  -13.3123    7.8911 N   0  3  0  0  0  0  0  0  0  0  0  0
   14.1940  -11.4062    6.9461 N   0  0  0  0  0  0  0  0  0  0  0  0
   13.4969  -10.7279    6.0662 N   0  0  0  0  0  0  0  0  0  0  0  0
   13.5750  -11.3174    8.1556 C   0  0  0  0  0  0  0  0  0  0  0  0
   12.4752  -10.2153    6.6099 N   0  0  0  0  0  0  0  0  0  0  0  0
   12.4703  -10.5519    7.9307 C   0  0  0  0  0  0  0  0  0  0  0  0
   18.6908   -8.8765    3.4211 H   0  0  0  0  0  0  0  0  0  0  0  0
   23.0432  -10.3728    4.7974 H   0  0  0  0  0  0  0  0  0  0  0  0
   21.1753  -11.8752    4.8550 H   0  0  0  0  0  0  0  0  0  0  0  0
   18.9158  -12.3482    4.4728 H   0  0  0  0  0  0  0  0  0  0  0  0
   18.2055  -11.5075    3.2665 H   0  0  0  0  0  0  0  0  0  0  0  0
   16.2627  -10.6183    7.8528 H   0  0  0  0  0  0  0  0  0  0  0  0
   18.9319  -10.6493    8.0775 H   0  0  0  0  0  0  0  0  0  0  0  0
   19.7003  -10.7324    6.6390 H   0  0  0  0  0  0  0  0  0  0  0  0
   16.4144  -12.9117    8.9103 H   0  0  0  0  0  0  0  0  0  0  0  0
   17.6115  -11.8393    9.1991 H   0  0  0  0  0  0  0  0  0  0  0  0
   15.3495  -13.0805    7.0053 H   0  0  0  0  0  0  0  0  0  0  0  0
   15.6339  -12.1339    5.7054 H   0  0  0  0  0  0  0  0  0  0  0  0
   20.0338  -12.6572    8.2294 H   0  0  0  0  0  0  0  0  0  0  0  0
   19.7375  -13.0254    6.6663 H   0  0  0  0  0  0  0  0  0  0  0  0
   17.7229  -13.7358    7.0832 H   0  0  0  0  0  0  0  0  0  0  0  0
   13.8673  -11.7252    9.0205 H   0  0  0  0  0  0  0  0  0  0  0  0
   11.7843  -10.2865    8.6081 H   0  0  0  0  0  0  0  0  0  0  0  0
   18.3657  -14.0210    8.5571 H   0  0  0  0  0  0  0  0  0  0  0  0
  1  2  1  0  0  0  0
  2  3  2  0  0  0  0
  2  4  1  0  0  0  0
  3  5  1  0  0  0  0
  3  6  1  0  0  0  0
  4  7  2  0  0  0  0
  6  8  2  0  0  0  0
  7  9  1  0  0  0  0
  9 10  1  0  0  0  0
 10 11  2  0  0  0  0
 10 12  1  0  0  0  0
 12 13  1  0  0  0  0
 12 14  1  0  0  0  0
 13 15  1  0  0  0  0
 13 16  1  0  0  0  0
 14 17  1  0  0  0  0
 15 18  1  0  0  0  0
 16 19  1  0  0  0  0
 19 20  1  0  0  0  0
 19 21  1  0  0  0  0
 20 22  2  0  0  0  0
 21 23  2  0  0  0  0
  7  8  1  0  0  0  0
 17 18  1  0  0  0  0
 22 23  1  0  0  0  0
  4 24  1  0  0  0  0
  6 25  1  0  0  0  0
  8 26  1  0  0  0  0
  9 27  1  0  0  0  0
  9 28  1  0  0  0  0
 13 29  1  0  0  0  0
 14 30  1  0  0  0  0
 14 31  1  0  0  0  0
 15 32  1  0  0  0  0
 15 33  1  0  0  0  0
 16 34  1  0  0  0  0
 16 35  1  0  0  0  0
 17 36  1  0  0  0  0
 17 37  1  0  0  0  0
 18 38  1  0  0  0  0
 21 39  1  0  0  0  0
 23 40  1  0  0  0  0
 18 41  1  0  0  0  0
M  CHG  1  18   1
M  END
> <BIOSOLVEIT.HYDE_ESTIMATED_AFFINITY_LOWER_BOUNDARY [nM]>
234055530.757421

> <BIOSOLVEIT.HYDE_ESTIMATED_AFFINITY_UPPER_BOUNDARY [nM]>
23254800826.566750

> <BIOSOLVEIT.HYDE_LIGAND_EFFICIENCY range: ++, +, 0, -, -->
--

> <BIOSOLVEIT.HYDE_LIGAND_LIPOPHILIC_EFFICIENCY range: ++, +, 0, -, -->
--

> <BIOSOLVEIT.INTER_CLASH range: red, yellow, green>
green

> <BIOSOLVEIT.INTRA_CLASH range: red, yellow, green>
green

> <BIOSOLVEIT.LOGP>
0.6018

> <BIOSOLVEIT.MOLECULAR WEIGHT>
355.247

> <BIOSOLVEIT.MOLECULE_CHECKSUM>
Mi4xMDAwNzsw

> <BIOSOLVEIT.TORSION_QUALITY range: red, yellow, green, not rotatable>
yellow

> <BIOSOLVEIT.TPSA>
67.63

> <BIOSOLVEIT.SEESAR_FAVORITE>
favorite

> <smc_score>
0.563

> <QED_score>
0.907

> <distance>
0.682

> <SimilarityPheSA_1>
0.632

> <Smiles>
O=C(Cc1ccc(Cl)c(Cl)c1)N1CCNCC1Cn1ccnn1

> <Similarity_SkelSpheres>
0.653

> <Cluster No>
339.0

> <QueryID>
MAT-POS-f7918075-5

> <SimilarityPheSA>
0.6315

> <Postera series>
3-aminopyridine-like

> <PDB_code>
Mpro-x11499

> <Approach>
DGM_focussed_RL

> <ID>
20210618_618

> <SimilarityPheSA_2>
0.666

> <OPTIBRIUM.logD>
0.661721

> <OPTIBRIUM.BBB category>
-

> <OPTIBRIUM.logP>
1.91043

> <OPTIBRIUM.P-gp category>
no

> <OPTIBRIUM.logS>
4.04391

> <OPTIBRIUM.HIA category>
+

> <OPTIBRIUM.PPB90 category>
low

> <OPTIBRIUM.2D6 affinity category>
medium

> <OPTIBRIUM.hERG pIC50>
5.05354

> <OPTIBRIUM.2C9 pKi>
4.72126

> <OPTIBRIUM.BBB log([brain]:[blood])>
-0.050399

> <OPTIBRIUM.logS @ pH7.4>
2.39814

$$$$
Compound 619_1_06
haSeeSAR  07122114523D 1   1.00000     0.00000     0
SeeSAR 11.0.2 hazemaj
 41 43  0  0  0  0            999 V2000
   19.8910   -6.5231    2.8614 Cl  0  0  0  0  0  0  0  0  0  0  0  0
   20.0308   -8.2614    3.2168 C   0  0  0  0  0  0  0  0  0  0  0  0
   21.2365   -8.7747    3.6835 C   0  0  0  0  0  0  0  0  0  0  0  0
   18.9360   -9.0975    3.0273 C   0  0  0  0  0  0  0  0  0  0  0  0
   22.6307   -7.6939    3.9228 Cl  0  0  0  0  0  0  0  0  0  0  0  0
   21.3674  -10.1304    3.9665 C   0  0  0  0  0  0  0  0  0  0  0  0
   19.0709  -10.4520    3.3120 C   0  0  0  0  0  0  0  0  0  0  0  0
   20.2746  -10.9705    3.7780 C   0  0  0  0  0  0  0  0  0  0  0  0
   17.8767  -11.3699    3.1058 C   0  0  0  0  0  0  0  0  0  0  0  0
   17.0234  -11.3814    4.3636 C   0  0  0  0  0  0  0  0  0  0  0  0
   16.3727  -10.3839    4.6751 O   0  0  0  0  0  0  0  0  0  0  0  0
   16.9774  -12.5269    5.1684 N   0  0  0  0  0  0  0  0  0  0  0  0
   15.7502  -12.9460    5.8659 C   0  0  2  0  0  0  0  0  0  0  0  0
   18.1688  -13.3672    5.3625 C   0  0  0  0  0  0  0  0  0  0  0  0
   15.7634  -14.4604    6.0043 C   0  0  0  0  0  0  0  0  0  0  0  0
   14.5006  -12.4869    5.1305 C   0  0  0  0  0  0  0  0  0  0  0  0
   18.0636  -14.0280    6.7304 C   0  0  0  0  0  0  0  0  0  0  0  0
   16.8958  -14.9190    6.8259 N   0  3  0  0  0  0  0  0  0  0  0  0
   13.6799  -11.6603    6.0274 N   0  0  0  0  0  0  0  0  0  0  0  0
   12.8442  -10.7174    5.6632 N   0  0  0  0  0  0  0  0  0  0  0  0
   13.6742  -11.7474    7.3863 C   0  0  0  0  0  0  0  0  0  0  0  0
   12.2956  -10.1949    6.6772 N   0  0  0  0  0  0  0  0  0  0  0  0
   12.7809  -10.8036    7.7961 C   0  0  0  0  0  0  0  0  0  0  0  0
   18.0675   -8.7315    2.6926 H   0  0  0  0  0  0  0  0  0  0  0  0
   22.2359  -10.4963    4.3011 H   0  0  0  0  0  0  0  0  0  0  0  0
   20.3543  -11.9471    3.9775 H   0  0  0  0  0  0  0  0  0  0  0  0
   18.1982  -12.2969    2.9128 H   0  0  0  0  0  0  0  0  0  0  0  0
   17.3310  -11.0392    2.3358 H   0  0  0  0  0  0  0  0  0  0  0  0
   15.7490  -12.5418    6.7806 H   0  0  0  0  0  0  0  0  0  0  0  0
   18.9927  -12.8019    5.3215 H   0  0  0  0  0  0  0  0  0  0  0  0
   18.2095  -14.0676    4.6499 H   0  0  0  0  0  0  0  0  0  0  0  0
   15.8360  -14.8689    5.0945 H   0  0  0  0  0  0  0  0  0  0  0  0
   14.9100  -14.7545    6.4347 H   0  0  0  0  0  0  0  0  0  0  0  0
   13.9740  -13.2850    4.8377 H   0  0  0  0  0  0  0  0  0  0  0  0
   14.7639  -11.9491    4.3295 H   0  0  0  0  0  0  0  0  0  0  0  0
   17.9836  -13.3156    7.4276 H   0  0  0  0  0  0  0  0  0  0  0  0
   18.8921  -14.5635    6.8946 H   0  0  0  0  0  0  0  0  0  0  0  0
   17.1643  -15.8323    6.5197 H   0  0  0  0  0  0  0  0  0  0  0  0
   14.2091  -12.3688    7.9588 H   0  0  0  0  0  0  0  0  0  0  0  0
   12.5285  -10.5962    8.7414 H   0  0  0  0  0  0  0  0  0  0  0  0
   16.6022  -14.9606    7.7810 H   0  0  0  0  0  0  0  0  0  0  0  0
  1  2  1  0  0  0  0
  2  3  2  0  0  0  0
  2  4  1  0  0  0  0
  3  5  1  0  0  0  0
  3  6  1  0  0  0  0
  4  7  2  0  0  0  0
  6  8  2  0  0  0  0
  7  9  1  0  0  0  0
  9 10  1  0  0  0  0
 10 11  2  0  0  0  0
 10 12  1  0  0  0  0
 12 13  1  0  0  0  0
 12 14  1  0  0  0  0
 13 15  1  0  0  0  0
 13 16  1  0  0  0  0
 14 17  1  0  0  0  0
 15 18  1  0  0  0  0
 16 19  1  0  0  0  0
 19 20  1  0  0  0  0
 19 21  1  0  0  0  0
 20 22  2  0  0  0  0
 21 23  2  0  0  0  0
  7  8  1  0  0  0  0
 17 18  1  0  0  0  0
 22 23  1  0  0  0  0
  4 24  1  0  0  0  0
  6 25  1  0  0  0  0
  8 26  1  0  0  0  0
  9 27  1  0  0  0  0
  9 28  1  0  0  0  0
 13 29  1  0  0  0  0
 14 30  1  0  0  0  0
 14 31  1  0  0  0  0
 15 32  1  0  0  0  0
 15 33  1  0  0  0  0
 16 34  1  0  0  0  0
 16 35  1  0  0  0  0
 17 36  1  0  0  0  0
 17 37  1  0  0  0  0
 18 38  1  0  0  0  0
 21 39  1  0  0  0  0
 23 40  1  0  0  0  0
 18 41  1  0  0  0  0
M  CHG  1  18   1
M  END
> <BIOSOLVEIT.HYDE_ESTIMATED_AFFINITY_LOWER_BOUNDARY [nM]>
155198911.643396

> <BIOSOLVEIT.HYDE_ESTIMATED_AFFINITY_UPPER_BOUNDARY [nM]>
15419929480.357632

> <BIOSOLVEIT.HYDE_LIGAND_EFFICIENCY range: ++, +, 0, -, -->
--

> <BIOSOLVEIT.HYDE_LIGAND_LIPOPHILIC_EFFICIENCY range: ++, +, 0, -, -->
--

> <BIOSOLVEIT.INTER_CLASH range: red, yellow, green>
green

> <BIOSOLVEIT.INTRA_CLASH range: red, yellow, green>
yellow

> <BIOSOLVEIT.LOGP>
0.6018

> <BIOSOLVEIT.MOLECULAR WEIGHT>
355.247

> <BIOSOLVEIT.MOLECULE_CHECKSUM>
MS4wODE1OTsw

> <BIOSOLVEIT.TORSION_QUALITY range: red, yellow, green, not rotatable>
red

> <BIOSOLVEIT.TPSA>
67.63

> <BIOSOLVEIT.SEESAR_FAVORITE>
favorite

> <smc_score>
0.563

> <QED_score>
0.907

> <distance>
0.682

> <SimilarityPheSA_1>
0.632

> <Smiles>
O=C(Cc1ccc(Cl)c(Cl)c1)N1CCNCC1Cn1ccnn1

> <Similarity_SkelSpheres>
0.653

> <Cluster No>
339.0

> <QueryID>
MAT-POS-f7918075-5

> <SimilarityPheSA>
0.6315

> <Postera series>
3-aminopyridine-like

> <PDB_code>
Mpro-x11499

> <Approach>
DGM_focussed_RL

> <ID>
20210618_618

> <SimilarityPheSA_2>
0.666

> <OPTIBRIUM.logD>
0.661721

> <OPTIBRIUM.BBB category>
-

> <OPTIBRIUM.logP>
1.91043

> <OPTIBRIUM.P-gp category>
no

> <OPTIBRIUM.logS>
4.04391

> <OPTIBRIUM.HIA category>
+

> <OPTIBRIUM.PPB90 category>
low

> <OPTIBRIUM.2D6 affinity category>
medium

> <OPTIBRIUM.hERG pIC50>
5.05354

> <OPTIBRIUM.2C9 pKi>
4.72126

> <OPTIBRIUM.BBB log([brain]:[blood])>
-0.050399

> <OPTIBRIUM.logS @ pH7.4>
2.39814

$$$$
Compound 619_1_07
haSeeSAR  07122114523D 1   1.00000     0.00000     0
SeeSAR 11.0.2 hazemaj
 41 43  0  0  0  0            999 V2000
   19.7084   -6.6999    2.7477 Cl  0  0  0  0  0  0  0  0  0  0  0  0
   19.9203   -8.4008    3.2269 C   0  0  0  0  0  0  0  0  0  0  0  0
   21.1526   -8.8338    3.7053 C   0  0  0  0  0  0  0  0  0  0  0  0
   18.8546   -9.2880    3.1216 C   0  0  0  0  0  0  0  0  0  0  0  0
   22.5088   -7.6880    3.8361 Cl  0  0  0  0  0  0  0  0  0  0  0  0
   21.3398  -10.1590    4.0843 C   0  0  0  0  0  0  0  0  0  0  0  0
   19.0459  -10.6119    3.5020 C   0  0  0  0  0  0  0  0  0  0  0  0
   20.2763  -11.0502    3.9804 C   0  0  0  0  0  0  0  0  0  0  0  0
   17.8839  -11.5855    3.3883 C   0  0  0  0  0  0  0  0  0  0  0  0
   16.9593  -11.4125    4.5823 C   0  0  0  0  0  0  0  0  0  0  0  0
   16.1475  -10.4874    4.6032 O   0  0  0  0  0  0  0  0  0  0  0  0
   17.0309  -12.3058    5.6588 N   0  0  0  0  0  0  0  0  0  0  0  0
   16.2190  -12.1167    6.8729 C   0  0  2  0  0  0  0  0  0  0  0  0
   17.9357  -13.4666    5.6075 C   0  0  0  0  0  0  0  0  0  0  0  0
   16.9608  -12.7790    8.0296 C   0  0  0  0  0  0  0  0  0  0  0  0
   14.8177  -12.6879    6.7153 C   0  0  0  0  0  0  0  0  0  0  0  0
   17.4185  -14.6215    6.4558 C   0  0  0  0  0  0  0  0  0  0  0  0
   17.1826  -14.2278    7.8575 N   0  3  0  0  0  0  0  0  0  0  0  0
   13.8266  -11.6453    7.0189 N   0  0  0  0  0  0  0  0  0  0  0  0
   13.2577  -10.8417    6.1524 N   0  0  0  0  0  0  0  0  0  0  0  0
   13.3548  -11.3512    8.2619 C   0  0  0  0  0  0  0  0  0  0  0  0
   12.4526  -10.0586    6.7358 N   0  0  0  0  0  0  0  0  0  0  0  0
   12.4711  -10.3315    8.0712 C   0  0  0  0  0  0  0  0  0  0  0  0
   17.9673   -8.9798    2.7787 H   0  0  0  0  0  0  0  0  0  0  0  0
   22.2272  -10.4672    4.4271 H   0  0  0  0  0  0  0  0  0  0  0  0
   20.3966  -12.0057    4.2494 H   0  0  0  0  0  0  0  0  0  0  0  0
   18.2342  -12.5220    3.3710 H   0  0  0  0  0  0  0  0  0  0  0  0
   17.3776  -11.4032    2.5455 H   0  0  0  0  0  0  0  0  0  0  0  0
   16.1458  -11.1369    7.0591 H   0  0  0  0  0  0  0  0  0  0  0  0
   18.8351  -13.1919    5.9477 H   0  0  0  0  0  0  0  0  0  0  0  0
   18.0174  -13.7723    4.6589 H   0  0  0  0  0  0  0  0  0  0  0  0
   16.4276  -12.6406    8.8641 H   0  0  0  0  0  0  0  0  0  0  0  0
   17.8516  -12.3349    8.1258 H   0  0  0  0  0  0  0  0  0  0  0  0
   14.6979  -13.4553    7.3453 H   0  0  0  0  0  0  0  0  0  0  0  0
   14.6908  -13.0051    5.7755 H   0  0  0  0  0  0  0  0  0  0  0  0
   18.0928  -15.3597    6.4386 H   0  0  0  0  0  0  0  0  0  0  0  0
   16.5578  -14.9470    6.0644 H   0  0  0  0  0  0  0  0  0  0  0  0
   16.3753  -14.7140    8.1919 H   0  0  0  0  0  0  0  0  0  0  0  0
   13.6028  -11.7883    9.1264 H   0  0  0  0  0  0  0  0  0  0  0  0
   11.9362   -9.8698    8.7787 H   0  0  0  0  0  0  0  0  0  0  0  0
   17.9798  -14.4930    8.3998 H   0  0  0  0  0  0  0  0  0  0  0  0
  1  2  1  0  0  0  0
  2  3  2  0  0  0  0
  2  4  1  0  0  0  0
  3  5  1  0  0  0  0
  3  6  1  0  0  0  0
  4  7  2  0  0  0  0
  6  8  2  0  0  0  0
  7  9  1  0  0  0  0
  9 10  1  0  0  0  0
 10 11  2  0  0  0  0
 10 12  1  0  0  0  0
 12 13  1  0  0  0  0
 12 14  1  0  0  0  0
 13 15  1  0  0  0  0
 13 16  1  0  0  0  0
 14 17  1  0  0  0  0
 15 18  1  0  0  0  0
 16 19  1  0  0  0  0
 19 20  1  0  0  0  0
 19 21  1  0  0  0  0
 20 22  2  0  0  0  0
 21 23  2  0  0  0  0
  7  8  1  0  0  0  0
 17 18  1  0  0  0  0
 22 23  1  0  0  0  0
  4 24  1  0  0  0  0
  6 25  1  0  0  0  0
  8 26  1  0  0  0  0
  9 27  1  0  0  0  0
  9 28  1  0  0  0  0
 13 29  1  0  0  0  0
 14 30  1  0  0  0  0
 14 31  1  0  0  0  0
 15 32  1  0  0  0  0
 15 33  1  0  0  0  0
 16 34  1  0  0  0  0
 16 35  1  0  0  0  0
 17 36  1  0  0  0  0
 17 37  1  0  0  0  0
 18 38  1  0  0  0  0
 21 39  1  0  0  0  0
 23 40  1  0  0  0  0
 18 41  1  0  0  0  0
M  CHG  1  18   1
M  END
> <BIOSOLVEIT.HYDE_ESTIMATED_AFFINITY_LOWER_BOUNDARY [nM]>
532334.350986

> <BIOSOLVEIT.HYDE_ESTIMATED_AFFINITY_UPPER_BOUNDARY [nM]>
52890565.180206

> <BIOSOLVEIT.HYDE_LIGAND_EFFICIENCY range: ++, +, 0, -, -->
--

> <BIOSOLVEIT.HYDE_LIGAND_LIPOPHILIC_EFFICIENCY range: ++, +, 0, -, -->
--

> <BIOSOLVEIT.INTER_CLASH range: red, yellow, green>
green

> <BIOSOLVEIT.INTRA_CLASH range: red, yellow, green>
green

> <BIOSOLVEIT.LOGP>
0.6018

> <BIOSOLVEIT.MOLECULAR WEIGHT>
355.247

> <BIOSOLVEIT.MOLECULE_CHECKSUM>
LTEyLjk4NzswLjU2NDY1MQ==

> <BIOSOLVEIT.TORSION_QUALITY range: red, yellow, green, not rotatable>
yellow

> <BIOSOLVEIT.TPSA>
67.63

> <BIOSOLVEIT.SEESAR_FAVORITE>
favorite

> <smc_score>
0.563

> <QED_score>
0.907

> <distance>
0.682

> <SimilarityPheSA_1>
0.632

> <Smiles>
O=C(Cc1ccc(Cl)c(Cl)c1)N1CCNCC1Cn1ccnn1

> <Similarity_SkelSpheres>
0.653

> <Cluster No>
339.0

> <QueryID>
MAT-POS-f7918075-5

> <SimilarityPheSA>
0.6315

> <Postera series>
3-aminopyridine-like

> <PDB_code>
Mpro-x11499

> <Approach>
DGM_focussed_RL

> <ID>
20210618_618

> <SimilarityPheSA_2>
0.666

> <OPTIBRIUM.logD>
0.661721

> <OPTIBRIUM.BBB category>
-

> <OPTIBRIUM.logP>
1.91043

> <OPTIBRIUM.P-gp category>
no

> <OPTIBRIUM.logS>
4.04391

> <OPTIBRIUM.HIA category>
+

> <OPTIBRIUM.PPB90 category>
low

> <OPTIBRIUM.2D6 affinity category>
medium

> <OPTIBRIUM.hERG pIC50>
5.05354

> <OPTIBRIUM.2C9 pKi>
4.72126

> <OPTIBRIUM.BBB log([brain]:[blood])>
-0.050399

> <OPTIBRIUM.logS @ pH7.4>
2.39814

$$$$
Compound 619_1_08
haSeeSAR  07122114523D 1   1.00000     0.00000     0
SeeSAR 11.0.2 hazemaj
 41 43  0  0  0  0            999 V2000
   20.8470   -6.6102    3.1813 Cl  0  0  0  0  0  0  0  0  0  0  0  0
   21.0039   -8.2799    3.7767 C   0  0  0  0  0  0  0  0  0  0  0  0
   22.2362   -8.7363    4.2327 C   0  0  0  0  0  0  0  0  0  0  0  0
   19.8955   -9.1198    3.7841 C   0  0  0  0  0  0  0  0  0  0  0  0
   23.6475   -7.6513    4.2191 Cl  0  0  0  0  0  0  0  0  0  0  0  0
   22.3808  -10.0381    4.7013 C   0  0  0  0  0  0  0  0  0  0  0  0
   20.0442  -10.4203    4.2539 C   0  0  0  0  0  0  0  0  0  0  0  0
   21.2745  -10.8818    4.7101 C   0  0  0  0  0  0  0  0  0  0  0  0
   18.8354  -11.3421    4.2633 C   0  0  0  0  0  0  0  0  0  0  0  0
   17.7026  -10.6843    5.0343 C   0  0  0  0  0  0  0  0  0  0  0  0
   16.8313  -10.0568    4.4323 O   0  0  0  0  0  0  0  0  0  0  0  0
   17.6502  -10.7920    6.4299 N   0  0  0  0  0  0  0  0  0  0  0  0
   16.4506  -11.3584    7.0705 C   0  0  2  0  0  0  0  0  0  0  0  0
   18.8105  -10.3234    7.2046 C   0  0  0  0  0  0  0  0  0  0  0  0
   16.8587  -12.1442    8.3066 C   0  0  0  0  0  0  0  0  0  0  0  0
   15.6834  -12.2968    6.1524 C   0  0  0  0  0  0  0  0  0  0  0  0
   18.9928  -11.1321    8.4804 C   0  0  0  0  0  0  0  0  0  0  0  0
   17.7162  -11.3331    9.1843 N   0  3  0  0  0  0  0  0  0  0  0  0
   14.2924  -11.8361    6.0320 N   0  0  0  0  0  0  0  0  0  0  0  0
   13.9023  -10.6334    5.6834 N   0  0  0  0  0  0  0  0  0  0  0  0
   13.1911  -12.5982    6.2776 C   0  0  0  0  0  0  0  0  0  0  0  0
   12.6386  -10.5614    5.6777 N   0  0  0  0  0  0  0  0  0  0  0  0
   12.1324  -11.7721    6.0460 C   0  0  0  0  0  0  0  0  0  0  0  0
   19.0080   -8.7946    3.4576 H   0  0  0  0  0  0  0  0  0  0  0  0
   23.2684  -10.3632    5.0277 H   0  0  0  0  0  0  0  0  0  0  0  0
   21.3638  -11.8200    5.0444 H   0  0  0  0  0  0  0  0  0  0  0  0
   19.0791  -12.2070    4.7022 H   0  0  0  0  0  0  0  0  0  0  0  0
   18.5417  -11.5163    3.3234 H   0  0  0  0  0  0  0  0  0  0  0  0
   15.8471  -10.6104    7.3468 H   0  0  0  0  0  0  0  0  0  0  0  0
   18.6737   -9.3627    7.4456 H   0  0  0  0  0  0  0  0  0  0  0  0
   19.6333  -10.4123    6.6432 H   0  0  0  0  0  0  0  0  0  0  0  0
   17.3600  -12.9620    8.0241 H   0  0  0  0  0  0  0  0  0  0  0  0
   16.0374  -12.4137    8.8094 H   0  0  0  0  0  0  0  0  0  0  0  0
   15.6967  -13.2211    6.5338 H   0  0  0  0  0  0  0  0  0  0  0  0
   16.1118  -12.3030    5.2487 H   0  0  0  0  0  0  0  0  0  0  0  0
   19.6232  -10.6455    9.0852 H   0  0  0  0  0  0  0  0  0  0  0  0
   19.3778  -12.0248    8.2461 H   0  0  0  0  0  0  0  0  0  0  0  0
   17.8729  -11.8119   10.0480 H   0  0  0  0  0  0  0  0  0  0  0  0
   13.1648  -13.5555    6.5652 H   0  0  0  0  0  0  0  0  0  0  0  0
   11.1646  -12.0098    6.1305 H   0  0  0  0  0  0  0  0  0  0  0  0
   17.2827  -10.4505    9.3662 H   0  0  0  0  0  0  0  0  0  0  0  0
  1  2  1  0  0  0  0
  2  3  2  0  0  0  0
  2  4  1  0  0  0  0
  3  5  1  0  0  0  0
  3  6  1  0  0  0  0
  4  7  2  0  0  0  0
  6  8  2  0  0  0  0
  7  9  1  0  0  0  0
  9 10  1  0  0  0  0
 10 11  2  0  0  0  0
 10 12  1  0  0  0  0
 12 13  1  0  0  0  0
 12 14  1  0  0  0  0
 13 15  1  0  0  0  0
 13 16  1  0  0  0  0
 14 17  1  0  0  0  0
 15 18  1  0  0  0  0
 16 19  1  0  0  0  0
 19 20  1  0  0  0  0
 19 21  1  0  0  0  0
 20 22  2  0  0  0  0
 21 23  2  0  0  0  0
  7  8  1  0  0  0  0
 17 18  1  0  0  0  0
 22 23  1  0  0  0  0
  4 24  1  0  0  0  0
  6 25  1  0  0  0  0
  8 26  1  0  0  0  0
  9 27  1  0  0  0  0
  9 28  1  0  0  0  0
 13 29  1  0  0  0  0
 14 30  1  0  0  0  0
 14 31  1  0  0  0  0
 15 32  1  0  0  0  0
 15 33  1  0  0  0  0
 16 34  1  0  0  0  0
 16 35  1  0  0  0  0
 17 36  1  0  0  0  0
 17 37  1  0  0  0  0
 18 38  1  0  0  0  0
 21 39  1  0  0  0  0
 23 40  1  0  0  0  0
 18 41  1  0  0  0  0
M  CHG  1  18   1
M  END
> <BIOSOLVEIT.HYDE_ESTIMATED_AFFINITY_LOWER_BOUNDARY [nM]>
770577502.917441

> <BIOSOLVEIT.HYDE_ESTIMATED_AFFINITY_UPPER_BOUNDARY [nM]>
76561430929.613373

> <BIOSOLVEIT.HYDE_LIGAND_EFFICIENCY range: ++, +, 0, -, -->
--

> <BIOSOLVEIT.HYDE_LIGAND_LIPOPHILIC_EFFICIENCY range: ++, +, 0, -, -->
--

> <BIOSOLVEIT.INTER_CLASH range: red, yellow, green>
green

> <BIOSOLVEIT.INTRA_CLASH range: red, yellow, green>
green

> <BIOSOLVEIT.LOGP>
0.6018

> <BIOSOLVEIT.MOLECULAR WEIGHT>
355.247

> <BIOSOLVEIT.MOLECULE_CHECKSUM>
NS4wNTM5NTsw

> <BIOSOLVEIT.TORSION_QUALITY range: red, yellow, green, not rotatable>
red

> <BIOSOLVEIT.TPSA>
67.63

> <BIOSOLVEIT.SEESAR_FAVORITE>
favorite

> <smc_score>
0.563

> <QED_score>
0.907

> <distance>
0.682

> <SimilarityPheSA_1>
0.632

> <Smiles>
O=C(Cc1ccc(Cl)c(Cl)c1)N1CCNCC1Cn1ccnn1

> <Similarity_SkelSpheres>
0.653

> <Cluster No>
339.0

> <QueryID>
MAT-POS-f7918075-5

> <SimilarityPheSA>
0.6315

> <Postera series>
3-aminopyridine-like

> <PDB_code>
Mpro-x11499

> <Approach>
DGM_focussed_RL

> <ID>
20210618_618

> <SimilarityPheSA_2>
0.666

> <OPTIBRIUM.logD>
0.661721

> <OPTIBRIUM.BBB category>
-

> <OPTIBRIUM.logP>
1.91043

> <OPTIBRIUM.P-gp category>
no

> <OPTIBRIUM.logS>
4.04391

> <OPTIBRIUM.HIA category>
+

> <OPTIBRIUM.PPB90 category>
low

> <OPTIBRIUM.2D6 affinity category>
medium

> <OPTIBRIUM.hERG pIC50>
5.05354

> <OPTIBRIUM.2C9 pKi>
4.72126

> <OPTIBRIUM.BBB log([brain]:[blood])>
-0.050399

> <OPTIBRIUM.logS @ pH7.4>
2.39814

$$$$
Compound 619_1_09
haSeeSAR  07122114523D 1   1.00000     0.00000     0
SeeSAR 11.0.2 hazemaj
 41 43  0  0  0  0            999 V2000
   20.4799   -6.3510    3.1608 Cl  0  0  0  0  0  0  0  0  0  0  0  0
   20.6472   -8.0850    3.5246 C   0  0  0  0  0  0  0  0  0  0  0  0
   21.8710   -8.5833    3.9588 C   0  0  0  0  0  0  0  0  0  0  0  0
   19.5552   -8.9329    3.3741 C   0  0  0  0  0  0  0  0  0  0  0  0
   23.2612   -7.4876    4.1485 Cl  0  0  0  0  0  0  0  0  0  0  0  0
   22.0236   -9.9355    4.2478 C   0  0  0  0  0  0  0  0  0  0  0  0
   19.7118  -10.2839    3.6644 C   0  0  0  0  0  0  0  0  0  0  0  0
   20.9337  -10.7874    4.0981 C   0  0  0  0  0  0  0  0  0  0  0  0
   18.5208  -11.2146    3.5008 C   0  0  0  0  0  0  0  0  0  0  0  0
   17.5130  -10.9471    4.6067 C   0  0  0  0  0  0  0  0  0  0  0  0
   16.5349  -10.2322    4.3883 O   0  0  0  0  0  0  0  0  0  0  0  0
   17.6972  -11.5138    5.8742 N   0  0  0  0  0  0  0  0  0  0  0  0
   16.7508  -11.2649    6.9749 C   0  0  2  0  0  0  0  0  0  0  0  0
   18.8592  -12.3771    6.1450 C   0  0  0  0  0  0  0  0  0  0  0  0
   17.5175  -11.4218    8.2844 C   0  0  0  0  0  0  0  0  0  0  0  0
   15.5538  -12.2022    6.9194 C   0  0  0  0  0  0  0  0  0  0  0  0
   18.5611  -13.3958    7.2378 C   0  0  0  0  0  0  0  0  0  0  0  0
   18.1025  -12.7612    8.4878 N   0  3  0  0  0  0  0  0  0  0  0  0
   14.3147  -11.4235    7.0600 N   0  0  0  0  0  0  0  0  0  0  0  0
   13.7086  -10.7540    6.1089 N   0  0  0  0  0  0  0  0  0  0  0  0
   13.6106  -11.2738    8.2159 C   0  0  0  0  0  0  0  0  0  0  0  0
   12.6674  -10.1909    6.5572 N   0  0  0  0  0  0  0  0  0  0  0  0
   12.5527  -10.4818    7.8840 C   0  0  0  0  0  0  0  0  0  0  0  0
   18.6737   -8.5777    3.0628 H   0  0  0  0  0  0  0  0  0  0  0  0
   22.9051  -10.2907    4.5589 H   0  0  0  0  0  0  0  0  0  0  0  0
   21.0289  -11.7617    4.3023 H   0  0  0  0  0  0  0  0  0  0  0  0
   18.8301  -12.1641    3.5542 H   0  0  0  0  0  0  0  0  0  0  0  0
   18.0914  -11.0534    2.6122 H   0  0  0  0  0  0  0  0  0  0  0  0
   16.4226  -10.3228    6.9075 H   0  0  0  0  0  0  0  0  0  0  0  0
   19.6270  -11.8058    6.4350 H   0  0  0  0  0  0  0  0  0  0  0  0
   19.1040  -12.8636    5.3063 H   0  0  0  0  0  0  0  0  0  0  0  0
   16.8889  -11.2364    9.0397 H   0  0  0  0  0  0  0  0  0  0  0  0
   18.2590  -10.7510    8.2956 H   0  0  0  0  0  0  0  0  0  0  0  0
   15.6162  -12.8670    7.6639 H   0  0  0  0  0  0  0  0  0  0  0  0
   15.5476  -12.6833    6.0428 H   0  0  0  0  0  0  0  0  0  0  0  0
   19.3940  -13.9155    7.4283 H   0  0  0  0  0  0  0  0  0  0  0  0
   17.8479  -14.0166    6.9123 H   0  0  0  0  0  0  0  0  0  0  0  0
   17.4103  -13.3492    8.9064 H   0  0  0  0  0  0  0  0  0  0  0  0
   13.8236  -11.6610    9.1130 H   0  0  0  0  0  0  0  0  0  0  0  0
   11.8276  -10.1717    8.4989 H   0  0  0  0  0  0  0  0  0  0  0  0
   18.8844  -12.6752    9.1051 H   0  0  0  0  0  0  0  0  0  0  0  0
  1  2  1  0  0  0  0
  2  3  2  0  0  0  0
  2  4  1  0  0  0  0
  3  5  1  0  0  0  0
  3  6  1  0  0  0  0
  4  7  2  0  0  0  0
  6  8  2  0  0  0  0
  7  9  1  0  0  0  0
  9 10  1  0  0  0  0
 10 11  2  0  0  0  0
 10 12  1  0  0  0  0
 12 13  1  0  0  0  0
 12 14  1  0  0  0  0
 13 15  1  0  0  0  0
 13 16  1  0  0  0  0
 14 17  1  0  0  0  0
 15 18  1  0  0  0  0
 16 19  1  0  0  0  0
 19 20  1  0  0  0  0
 19 21  1  0  0  0  0
 20 22  2  0  0  0  0
 21 23  2  0  0  0  0
  7  8  1  0  0  0  0
 17 18  1  0  0  0  0
 22 23  1  0  0  0  0
  4 24  1  0  0  0  0
  6 25  1  0  0  0  0
  8 26  1  0  0  0  0
  9 27  1  0  0  0  0
  9 28  1  0  0  0  0
 13 29  1  0  0  0  0
 14 30  1  0  0  0  0
 14 31  1  0  0  0  0
 15 32  1  0  0  0  0
 15 33  1  0  0  0  0
 16 34  1  0  0  0  0
 16 35  1  0  0  0  0
 17 36  1  0  0  0  0
 17 37  1  0  0  0  0
 18 38  1  0  0  0  0
 21 39  1  0  0  0  0
 23 40  1  0  0  0  0
 18 41  1  0  0  0  0
M  CHG  1  18   1
M  END
> <BIOSOLVEIT.HYDE_ESTIMATED_AFFINITY_LOWER_BOUNDARY [nM]>
135187029.279724

> <BIOSOLVEIT.HYDE_ESTIMATED_AFFINITY_UPPER_BOUNDARY [nM]>
13431630647.914379

> <BIOSOLVEIT.HYDE_LIGAND_EFFICIENCY range: ++, +, 0, -, -->
--

> <BIOSOLVEIT.HYDE_LIGAND_LIPOPHILIC_EFFICIENCY range: ++, +, 0, -, -->
--

> <BIOSOLVEIT.INTER_CLASH range: red, yellow, green>
green

> <BIOSOLVEIT.INTRA_CLASH range: red, yellow, green>
green

> <BIOSOLVEIT.LOGP>
0.6018

> <BIOSOLVEIT.MOLECULAR WEIGHT>
355.247

> <BIOSOLVEIT.MOLECULE_CHECKSUM>
MC43MzkzNjk7MA==

> <BIOSOLVEIT.TORSION_QUALITY range: red, yellow, green, not rotatable>
yellow

> <BIOSOLVEIT.TPSA>
67.63

> <BIOSOLVEIT.SEESAR_FAVORITE>
favorite

> <smc_score>
0.563

> <QED_score>
0.907

> <distance>
0.682

> <SimilarityPheSA_1>
0.632

> <Smiles>
O=C(Cc1ccc(Cl)c(Cl)c1)N1CCNCC1Cn1ccnn1

> <Similarity_SkelSpheres>
0.653

> <Cluster No>
339.0

> <QueryID>
MAT-POS-f7918075-5

> <SimilarityPheSA>
0.6315

> <Postera series>
3-aminopyridine-like

> <PDB_code>
Mpro-x11499

> <Approach>
DGM_focussed_RL

> <ID>
20210618_618

> <SimilarityPheSA_2>
0.666

> <OPTIBRIUM.logD>
0.661721

> <OPTIBRIUM.BBB category>
-

> <OPTIBRIUM.logP>
1.91043

> <OPTIBRIUM.P-gp category>
no

> <OPTIBRIUM.logS>
4.04391

> <OPTIBRIUM.HIA category>
+

> <OPTIBRIUM.PPB90 category>
low

> <OPTIBRIUM.2D6 affinity category>
medium

> <OPTIBRIUM.hERG pIC50>
5.05354

> <OPTIBRIUM.2C9 pKi>
4.72126

> <OPTIBRIUM.BBB log([brain]:[blood])>
-0.050399

> <OPTIBRIUM.logS @ pH7.4>
2.39814

$$$$
Compound 619_1_10
haSeeSAR  07122114523D 1   1.00000     0.00000     0
SeeSAR 11.0.2 hazemaj
 41 43  0  0  0  0            999 V2000
   20.4151   -6.4452    3.1216 Cl  0  0  0  0  0  0  0  0  0  0  0  0
   20.5134   -8.1844    3.4865 C   0  0  0  0  0  0  0  0  0  0  0  0
   21.6881   -8.7133    4.0110 C   0  0  0  0  0  0  0  0  0  0  0  0
   19.4170   -9.0055    3.2469 C   0  0  0  0  0  0  0  0  0  0  0  0
   23.0845   -7.6515    4.3142 Cl  0  0  0  0  0  0  0  0  0  0  0  0
   21.7865  -10.0699    4.3025 C   0  0  0  0  0  0  0  0  0  0  0  0
   19.5193  -10.3610    3.5401 C   0  0  0  0  0  0  0  0  0  0  0  0
   20.6919  -10.8951    4.0638 C   0  0  0  0  0  0  0  0  0  0  0  0
   18.3233  -11.2626    3.2792 C   0  0  0  0  0  0  0  0  0  0  0  0
   17.3089  -11.0955    4.3989 C   0  0  0  0  0  0  0  0  0  0  0  0
   16.4209  -10.2483    4.3033 O   0  0  0  0  0  0  0  0  0  0  0  0
   17.3847  -11.9053    5.5391 N   0  0  0  0  0  0  0  0  0  0  0  0
   16.5588  -11.6209    6.7241 C   0  0  2  0  0  0  0  0  0  0  0  0
   18.3091  -13.0491    5.4981 C   0  0  0  0  0  0  0  0  0  0  0  0
   17.2243  -12.0982    8.0023 C   0  0  0  0  0  0  0  0  0  0  0  0
   15.2536  -12.3874    6.5884 C   0  0  0  0  0  0  0  0  0  0  0  0
   18.7751  -13.4231    6.8967 C   0  0  0  0  0  0  0  0  0  0  0  0
   18.6667  -12.2416    7.7620 N   0  3  0  0  0  0  0  0  0  0  0  0
   14.1268  -11.4948    6.8967 N   0  0  0  0  0  0  0  0  0  0  0  0
   13.4934  -10.7246    6.0448 N   0  0  0  0  0  0  0  0  0  0  0  0
   13.5746  -11.3278    8.1301 C   0  0  0  0  0  0  0  0  0  0  0  0
   12.5734  -10.0802    6.6284 N   0  0  0  0  0  0  0  0  0  0  0  0
   12.5760  -10.4185    7.9489 C   0  0  0  0  0  0  0  0  0  0  0  0
   18.5707   -8.6282    2.8706 H   0  0  0  0  0  0  0  0  0  0  0  0
   22.6327  -10.4471    4.6786 H   0  0  0  0  0  0  0  0  0  0  0  0
   20.7483  -11.8722    4.2689 H   0  0  0  0  0  0  0  0  0  0  0  0
   18.6256  -12.2152    3.2429 H   0  0  0  0  0  0  0  0  0  0  0  0
   17.9017  -11.0132    2.4074 H   0  0  0  0  0  0  0  0  0  0  0  0
   16.3732  -10.6400    6.7825 H   0  0  0  0  0  0  0  0  0  0  0  0
   19.1043  -12.8072    4.9421 H   0  0  0  0  0  0  0  0  0  0  0  0
   17.8419  -13.8327    5.0885 H   0  0  0  0  0  0  0  0  0  0  0  0
   16.8394  -12.9809    8.2719 H   0  0  0  0  0  0  0  0  0  0  0  0
   17.0699  -11.4307    8.7307 H   0  0  0  0  0  0  0  0  0  0  0  0
   15.2520  -13.1584    7.2254 H   0  0  0  0  0  0  0  0  0  0  0  0
   15.1627  -12.7280    5.6526 H   0  0  0  0  0  0  0  0  0  0  0  0
   19.7265  -13.7294    6.8634 H   0  0  0  0  0  0  0  0  0  0  0  0
   18.2006  -14.1579    7.2573 H   0  0  0  0  0  0  0  0  0  0  0  0
   19.1563  -12.3862    8.6219 H   0  0  0  0  0  0  0  0  0  0  0  0
   13.8432  -11.7752    8.9831 H   0  0  0  0  0  0  0  0  0  0  0  0
   11.9600  -10.0653    8.6531 H   0  0  0  0  0  0  0  0  0  0  0  0
   19.0316  -11.4316    7.3028 H   0  0  0  0  0  0  0  0  0  0  0  0
  1  2  1  0  0  0  0
  2  3  2  0  0  0  0
  2  4  1  0  0  0  0
  3  5  1  0  0  0  0
  3  6  1  0  0  0  0
  4  7  2  0  0  0  0
  6  8  2  0  0  0  0
  7  9  1  0  0  0  0
  9 10  1  0  0  0  0
 10 11  2  0  0  0  0
 10 12  1  0  0  0  0
 12 13  1  0  0  0  0
 12 14  1  0  0  0  0
 13 15  1  0  0  0  0
 13 16  1  0  0  0  0
 14 17  1  0  0  0  0
 15 18  1  0  0  0  0
 16 19  1  0  0  0  0
 19 20  1  0  0  0  0
 19 21  1  0  0  0  0
 20 22  2  0  0  0  0
 21 23  2  0  0  0  0
  7  8  1  0  0  0  0
 17 18  1  0  0  0  0
 22 23  1  0  0  0  0
  4 24  1  0  0  0  0
  6 25  1  0  0  0  0
  8 26  1  0  0  0  0
  9 27  1  0  0  0  0
  9 28  1  0  0  0  0
 13 29  1  0  0  0  0
 14 30  1  0  0  0  0
 14 31  1  0  0  0  0
 15 32  1  0  0  0  0
 15 33  1  0  0  0  0
 16 34  1  0  0  0  0
 16 35  1  0  0  0  0
 17 36  1  0  0  0  0
 17 37  1  0  0  0  0
 18 38  1  0  0  0  0
 21 39  1  0  0  0  0
 23 40  1  0  0  0  0
 18 41  1  0  0  0  0
M  CHG  1  18   1
M  END
> <BIOSOLVEIT.HYDE_ESTIMATED_AFFINITY_LOWER_BOUNDARY [nM]>
20087786.655325

> <BIOSOLVEIT.HYDE_ESTIMATED_AFFINITY_UPPER_BOUNDARY [nM]>
1995840372.600750

> <BIOSOLVEIT.HYDE_LIGAND_EFFICIENCY range: ++, +, 0, -, -->
--

> <BIOSOLVEIT.HYDE_LIGAND_LIPOPHILIC_EFFICIENCY range: ++, +, 0, -, -->
--

> <BIOSOLVEIT.INTER_CLASH range: red, yellow, green>
green

> <BIOSOLVEIT.INTRA_CLASH range: red, yellow, green>
green

> <BIOSOLVEIT.LOGP>
0.6018

> <BIOSOLVEIT.MOLECULAR WEIGHT>
355.247

> <BIOSOLVEIT.MOLECULE_CHECKSUM>
LTMuOTg2ODg7MC4xNzMzNDM=

> <BIOSOLVEIT.TORSION_QUALITY range: red, yellow, green, not rotatable>
yellow

> <BIOSOLVEIT.TPSA>
67.63

> <BIOSOLVEIT.SEESAR_FAVORITE>
favorite

> <smc_score>
0.563

> <QED_score>
0.907

> <distance>
0.682

> <SimilarityPheSA_1>
0.632

> <Smiles>
O=C(Cc1ccc(Cl)c(Cl)c1)N1CCNCC1Cn1ccnn1

> <Similarity_SkelSpheres>
0.653

> <Cluster No>
339.0

> <QueryID>
MAT-POS-f7918075-5

> <SimilarityPheSA>
0.6315

> <Postera series>
3-aminopyridine-like

> <PDB_code>
Mpro-x11499

> <Approach>
DGM_focussed_RL

> <ID>
20210618_618

> <SimilarityPheSA_2>
0.666

> <OPTIBRIUM.logD>
0.661721

> <OPTIBRIUM.BBB category>
-

> <OPTIBRIUM.logP>
1.91043

> <OPTIBRIUM.P-gp category>
no

> <OPTIBRIUM.logS>
4.04391

> <OPTIBRIUM.HIA category>
+

> <OPTIBRIUM.PPB90 category>
low

> <OPTIBRIUM.2D6 affinity category>
medium

> <OPTIBRIUM.hERG pIC50>
5.05354

> <OPTIBRIUM.2C9 pKi>
4.72126

> <OPTIBRIUM.BBB log([brain]:[blood])>
-0.050399

> <OPTIBRIUM.logS @ pH7.4>
2.39814

$$$$
Compound 622_1_001
haSeeSAR  07122114523D 1   1.00000     0.00000     0
SeeSAR 11.0.2 hazemaj
 39 42  0  0  0  0            999 V2000
   21.0365   -8.4942    5.1376 Cl  0  0  0  0  0  0  0  0  0  0  0  0
   20.3297   -9.6013    3.9352 C   0  0  0  0  0  0  0  0  0  0  0  0
   21.0591   -9.9141    2.7947 C   0  0  0  0  0  0  0  0  0  0  0  0
   19.0704  -10.1706    4.0921 C   0  0  0  0  0  0  0  0  0  0  0  0
   22.6771   -9.2210    2.5297 Cl  0  0  0  0  0  0  0  0  0  0  0  0
   20.5310  -10.7654    1.8321 C   0  0  0  0  0  0  0  0  0  0  0  0
   18.5260  -11.0254    3.1392 C   0  0  0  0  0  0  0  0  0  0  0  0
   19.2634  -11.3006    2.0067 C   0  0  0  0  0  0  0  0  0  0  0  0
   17.3049  -11.7032    3.0869 N   0  0  0  0  0  0  0  0  0  0  0  0
   18.4186  -12.2069    1.1363 C   0  0  0  0  0  0  0  0  0  0  0  0
   16.1376  -11.3785    3.7943 C   0  0  0  0  0  0  0  0  0  0  0  0
   17.4345  -12.7914    2.1262 C   0  0  0  0  0  0  0  0  0  0  0  0
   15.9129  -10.2094    4.1077 O   0  0  0  0  0  0  0  0  0  0  0  0
   15.1505  -12.4703    4.1738 C   0  0  0  0  0  0  0  0  0  0  0  0
   14.3323  -12.0193    5.3743 C   0  0  0  0  0  0  0  0  0  0  0  0
   13.1078  -11.3735    5.2303 C   0  0  0  0  0  0  0  0  0  0  0  0
   14.8127  -12.2528    6.6586 C   0  0  0  0  0  0  0  0  0  0  0  0
   12.3995  -10.9822    6.2999 N   0  0  0  0  0  0  0  0  0  0  0  0
   14.0606  -11.8380    7.7526 C   0  0  0  0  0  0  0  0  0  0  0  0
   12.8424  -11.1968    7.5475 C   0  0  0  0  0  0  0  0  0  0  0  0
   14.5418  -12.0729    9.0450 N   0  0  0  0  0  0  0  0  0  0  0  0
   15.8441  -11.9537    9.4383 C   0  0  0  0  0  0  0  0  0  0  0  0
   13.7897  -12.4546   10.1164 C   0  0  0  0  0  0  0  0  0  0  0  0
   15.9096  -12.2520   10.7171 N   0  0  0  0  0  0  0  0  0  0  0  0
   14.6553  -12.5708   11.1646 C   0  0  0  0  0  0  0  0  0  0  0  0
   18.5410   -9.9594    4.9138 H   0  0  0  0  0  0  0  0  0  0  0  0
   21.0631  -10.9916    1.0162 H   0  0  0  0  0  0  0  0  0  0  0  0
   18.9745  -12.9229    0.7143 H   0  0  0  0  0  0  0  0  0  0  0  0
   17.9479  -11.6868    0.4236 H   0  0  0  0  0  0  0  0  0  0  0  0
   16.5588  -12.9998    1.6905 H   0  0  0  0  0  0  0  0  0  0  0  0
   17.7974  -13.6175    2.5572 H   0  0  0  0  0  0  0  0  0  0  0  0
   15.6497  -13.3053    4.4052 H   0  0  0  0  0  0  0  0  0  0  0  0
   14.5396  -12.6501    3.4026 H   0  0  0  0  0  0  0  0  0  0  0  0
   12.7498  -11.1981    4.3132 H   0  0  0  0  0  0  0  0  0  0  0  0
   15.6895  -12.7143    6.7939 H   0  0  0  0  0  0  0  0  0  0  0  0
   12.2976  -10.8962    8.3303 H   0  0  0  0  0  0  0  0  0  0  0  0
   16.6123  -11.6867    8.8563 H   0  0  0  0  0  0  0  0  0  0  0  0
   12.8030  -12.6168   10.1310 H   0  0  0  0  0  0  0  0  0  0  0  0
   14.4156  -12.8414   12.0969 H   0  0  0  0  0  0  0  0  0  0  0  0
  1  2  1  0  0  0  0
  2  3  2  0  0  0  0
  2  4  1  0  0  0  0
  3  5  1  0  0  0  0
  3  6  1  0  0  0  0
  4  7  2  0  0  0  0
  6  8  2  0  0  0  0
  7  9  1  0  0  0  0
  8 10  1  0  0  0  0
  9 11  1  0  0  0  0
  9 12  1  0  0  0  0
 11 13  2  0  0  0  0
 11 14  1  0  0  0  0
 14 15  1  0  0  0  0
 15 16  2  0  0  0  0
 15 17  1  0  0  0  0
 16 18  1  0  0  0  0
 17 19  2  0  0  0  0
 18 20  2  0  0  0  0
 19 21  1  0  0  0  0
 21 22  1  0  0  0  0
 21 23  1  0  0  0  0
 22 24  2  0  0  0  0
 23 25  2  0  0  0  0
  7  8  1  0  0  0  0
 10 12  1  0  0  0  0
 19 20  1  0  0  0  0
 24 25  1  0  0  0  0
  4 26  1  0  0  0  0
  6 27  1  0  0  0  0
 10 28  1  0  0  0  0
 10 29  1  0  0  0  0
 12 30  1  0  0  0  0
 12 31  1  0  0  0  0
 14 32  1  0  0  0  0
 14 33  1  0  0  0  0
 16 34  1  0  0  0  0
 17 35  1  0  0  0  0
 20 36  1  0  0  0  0
 22 37  1  0  0  0  0
 23 38  1  0  0  0  0
 25 39  1  0  0  0  0
M  END
> <BIOSOLVEIT.HYDE_ESTIMATED_AFFINITY_LOWER_BOUNDARY [nM]>
1976596.533759

> <BIOSOLVEIT.HYDE_ESTIMATED_AFFINITY_UPPER_BOUNDARY [nM]>
196386552.192523

> <BIOSOLVEIT.HYDE_LIGAND_EFFICIENCY range: ++, +, 0, -, -->
--

> <BIOSOLVEIT.HYDE_LIGAND_LIPOPHILIC_EFFICIENCY range: ++, +, 0, -, -->
--

> <BIOSOLVEIT.INTER_CLASH range: red, yellow, green>
green

> <BIOSOLVEIT.INTRA_CLASH range: red, yellow, green>
green

> <BIOSOLVEIT.LOGP>
3.7059

> <BIOSOLVEIT.MOLECULAR WEIGHT>
373.242

> <BIOSOLVEIT.MOLECULE_CHECKSUM>
LTkuNzM0OTI7MC4zODkzOTc=

> <BIOSOLVEIT.TORSION_QUALITY range: red, yellow, green, not rotatable>
green

> <BIOSOLVEIT.TPSA>
51.02

> <BIOSOLVEIT.SEESAR_FAVORITE>
favorite

> <smc_score>
0.563

> <QED_score>
0.704

> <distance>
0.711

> <SimilarityPheSA_1>
0.689

> <Smiles>
O=C(Cc1cncc(-n2ccnc2)c1)N1CCc2cc(Cl)c(Cl)cc21

> <Similarity_SkelSpheres>
0.65

> <Cluster No>
341.0

> <QueryID>
MAT-POS-bb423b95-1

> <SimilarityPheSA>
0.6891

> <Postera series>
3-aminopyridine-like

> <PDB_code>
Mpro-x11542

> <Approach>
DGM_focussed_RL

> <ID>
20210618_621

> <SimilarityPheSA_2>
0.771

> <OPTIBRIUM.logD>
2.81318

> <OPTIBRIUM.BBB category>
-

> <OPTIBRIUM.logP>
2.81318

> <OPTIBRIUM.P-gp category>
no

> <OPTIBRIUM.logS>
1.62214

> <OPTIBRIUM.HIA category>
+

> <OPTIBRIUM.PPB90 category>
high

> <OPTIBRIUM.2D6 affinity category>
medium

> <OPTIBRIUM.hERG pIC50>
5.08649

> <OPTIBRIUM.2C9 pKi>
5.59841

> <OPTIBRIUM.BBB log([brain]:[blood])>
-0.343972

> <OPTIBRIUM.logS @ pH7.4>
1.62214

$$$$
Compound 622_1_003
haSeeSAR  07122114523D 1   1.00000     0.00000     0
SeeSAR 11.0.2 hazemaj
 39 42  0  0  0  0            999 V2000
   21.2431   -9.0427    7.2998 Cl  0  0  0  0  0  0  0  0  0  0  0  0
   20.6742  -10.5135    6.4727 C   0  0  0  0  0  0  0  0  0  0  0  0
   21.5698  -11.5523    6.2506 C   0  0  0  0  0  0  0  0  0  0  0  0
   19.3619  -10.6669    6.0381 C   0  0  0  0  0  0  0  0  0  0  0  0
   23.2644  -11.4229    6.7801 Cl  0  0  0  0  0  0  0  0  0  0  0  0
   21.1602  -12.7082    5.5976 C   0  0  0  0  0  0  0  0  0  0  0  0
   18.9339  -11.8172    5.3833 C   0  0  0  0  0  0  0  0  0  0  0  0
   19.8501  -12.8229    5.1569 C   0  0  0  0  0  0  0  0  0  0  0  0
   17.6874  -12.1862    4.8698 N   0  0  0  0  0  0  0  0  0  0  0  0
   19.1299  -13.9166    4.3966 C   0  0  0  0  0  0  0  0  0  0  0  0
   16.6379  -11.3227    4.5219 C   0  0  0  0  0  0  0  0  0  0  0  0
   17.6767  -13.6348    4.7108 C   0  0  0  0  0  0  0  0  0  0  0  0
   16.8517  -10.1183    4.3839 O   0  0  0  0  0  0  0  0  0  0  0  0
   15.2367  -11.8744    4.3152 C   0  0  0  0  0  0  0  0  0  0  0  0
   14.3830  -11.5602    5.5345 C   0  0  0  0  0  0  0  0  0  0  0  0
   13.1325  -10.9594    5.4229 C   0  0  0  0  0  0  0  0  0  0  0  0
   14.8563  -11.8775    6.8034 C   0  0  0  0  0  0  0  0  0  0  0  0
   12.3931  -10.6890    6.5087 N   0  0  0  0  0  0  0  0  0  0  0  0
   14.0718  -11.5876    7.9146 C   0  0  0  0  0  0  0  0  0  0  0  0
   12.8286  -10.9860    7.7420 C   0  0  0  0  0  0  0  0  0  0  0  0
   14.5457  -11.9067    9.1916 N   0  0  0  0  0  0  0  0  0  0  0  0
   13.7676  -12.2290   10.2667 C   0  0  0  0  0  0  0  0  0  0  0  0
   15.8563  -11.9502    9.5656 C   0  0  0  0  0  0  0  0  0  0  0  0
   14.5638  -12.4668   11.2857 N   0  0  0  0  0  0  0  0  0  0  0  0
   15.8623  -12.2980   10.8847 C   0  0  0  0  0  0  0  0  0  0  0  0
   18.7069   -9.9290    6.2013 H   0  0  0  0  0  0  0  0  0  0  0  0
   21.8078  -13.4550    5.4459 H   0  0  0  0  0  0  0  0  0  0  0  0
   19.4009  -14.8220    4.7233 H   0  0  0  0  0  0  0  0  0  0  0  0
   19.3065  -13.8498    3.4145 H   0  0  0  0  0  0  0  0  0  0  0  0
   17.0798  -13.9150    3.9591 H   0  0  0  0  0  0  0  0  0  0  0  0
   17.3899  -14.0924    5.5525 H   0  0  0  0  0  0  0  0  0  0  0  0
   15.2840  -12.8651    4.1877 H   0  0  0  0  0  0  0  0  0  0  0  0
   14.8288  -11.4531    3.5051 H   0  0  0  0  0  0  0  0  0  0  0  0
   12.7793  -10.7251    4.5173 H   0  0  0  0  0  0  0  0  0  0  0  0
   15.7512  -12.3093    6.9155 H   0  0  0  0  0  0  0  0  0  0  0  0
   12.2603  -10.7752    8.5373 H   0  0  0  0  0  0  0  0  0  0  0  0
   12.7687  -12.2758   10.2770 H   0  0  0  0  0  0  0  0  0  0  0  0
   16.6522  -11.7645    8.9894 H   0  0  0  0  0  0  0  0  0  0  0  0
   16.6734  -12.4102   11.4587 H   0  0  0  0  0  0  0  0  0  0  0  0
  1  2  1  0  0  0  0
  2  3  2  0  0  0  0
  2  4  1  0  0  0  0
  3  5  1  0  0  0  0
  3  6  1  0  0  0  0
  4  7  2  0  0  0  0
  6  8  2  0  0  0  0
  7  9  1  0  0  0  0
  8 10  1  0  0  0  0
  9 11  1  0  0  0  0
  9 12  1  0  0  0  0
 11 13  2  0  0  0  0
 11 14  1  0  0  0  0
 14 15  1  0  0  0  0
 15 16  2  0  0  0  0
 15 17  1  0  0  0  0
 16 18  1  0  0  0  0
 17 19  2  0  0  0  0
 18 20  2  0  0  0  0
 19 21  1  0  0  0  0
 21 22  1  0  0  0  0
 21 23  1  0  0  0  0
 22 24  2  0  0  0  0
 23 25  2  0  0  0  0
  7  8  1  0  0  0  0
 10 12  1  0  0  0  0
 19 20  1  0  0  0  0
 24 25  1  0  0  0  0
  4 26  1  0  0  0  0
  6 27  1  0  0  0  0
 10 28  1  0  0  0  0
 10 29  1  0  0  0  0
 12 30  1  0  0  0  0
 12 31  1  0  0  0  0
 14 32  1  0  0  0  0
 14 33  1  0  0  0  0
 16 34  1  0  0  0  0
 17 35  1  0  0  0  0
 20 36  1  0  0  0  0
 22 37  1  0  0  0  0
 23 38  1  0  0  0  0
 25 39  1  0  0  0  0
M  END
> <BIOSOLVEIT.HYDE_ESTIMATED_AFFINITY_LOWER_BOUNDARY [nM]>
31912025.309769

> <BIOSOLVEIT.HYDE_ESTIMATED_AFFINITY_UPPER_BOUNDARY [nM]>
3170648393.351464

> <BIOSOLVEIT.HYDE_LIGAND_EFFICIENCY range: ++, +, 0, -, -->
--

> <BIOSOLVEIT.HYDE_LIGAND_LIPOPHILIC_EFFICIENCY range: ++, +, 0, -, -->
--

> <BIOSOLVEIT.INTER_CLASH range: red, yellow, green>
green

> <BIOSOLVEIT.INTRA_CLASH range: red, yellow, green>
green

> <BIOSOLVEIT.LOGP>
3.7059

> <BIOSOLVEIT.MOLECULAR WEIGHT>
373.242

> <BIOSOLVEIT.MOLECULE_CHECKSUM>
LTIuODM5NDQ7MC4xMTM1Nzg=

> <BIOSOLVEIT.TORSION_QUALITY range: red, yellow, green, not rotatable>
green

> <BIOSOLVEIT.TPSA>
51.02

> <BIOSOLVEIT.SEESAR_FAVORITE>
favorite

> <smc_score>
0.563

> <QED_score>
0.704

> <distance>
0.711

> <SimilarityPheSA_1>
0.689

> <Smiles>
O=C(Cc1cncc(-n2ccnc2)c1)N1CCc2cc(Cl)c(Cl)cc21

> <Similarity_SkelSpheres>
0.65

> <Cluster No>
341.0

> <QueryID>
MAT-POS-bb423b95-1

> <SimilarityPheSA>
0.6891

> <Postera series>
3-aminopyridine-like

> <PDB_code>
Mpro-x11542

> <Approach>
DGM_focussed_RL

> <ID>
20210618_621

> <SimilarityPheSA_2>
0.771

> <OPTIBRIUM.logD>
2.81318

> <OPTIBRIUM.BBB category>
-

> <OPTIBRIUM.logP>
2.81318

> <OPTIBRIUM.P-gp category>
no

> <OPTIBRIUM.logS>
1.62214

> <OPTIBRIUM.HIA category>
+

> <OPTIBRIUM.PPB90 category>
high

> <OPTIBRIUM.2D6 affinity category>
medium

> <OPTIBRIUM.hERG pIC50>
5.08649

> <OPTIBRIUM.2C9 pKi>
5.59841

> <OPTIBRIUM.BBB log([brain]:[blood])>
-0.343972

> <OPTIBRIUM.logS @ pH7.4>
1.62214

$$$$
Compound 623_1_001
haSeeSAR  07122114523D 1   1.00000     0.00000     0
SeeSAR 11.0.2 hazemaj
 39 42  0  0  0  0            999 V2000
   21.6377   -8.6961    5.5402 Cl  0  0  0  0  0  0  0  0  0  0  0  0
   20.8439   -9.5800    4.2136 C   0  0  0  0  0  0  0  0  0  0  0  0
   21.5249   -9.7521    3.0148 C   0  0  0  0  0  0  0  0  0  0  0  0
   19.5631  -10.1099    4.3292 C   0  0  0  0  0  0  0  0  0  0  0  0
   23.1670   -9.0999    2.7981 Cl  0  0  0  0  0  0  0  0  0  0  0  0
   20.9289  -10.4269    1.9566 C   0  0  0  0  0  0  0  0  0  0  0  0
   18.9510  -10.7887    3.2806 C   0  0  0  0  0  0  0  0  0  0  0  0
   19.6420  -10.9252    2.0948 C   0  0  0  0  0  0  0  0  0  0  0  0
   17.6970  -11.3963    3.1720 N   0  0  0  0  0  0  0  0  0  0  0  0
   18.7296  -11.6539    1.1309 C   0  0  0  0  0  0  0  0  0  0  0  0
   16.5674  -11.1287    3.9599 C   0  0  0  0  0  0  0  0  0  0  0  0
   17.7461  -12.3345    2.0578 C   0  0  0  0  0  0  0  0  0  0  0  0
   16.4941  -10.0757    4.5932 O   0  0  0  0  0  0  0  0  0  0  0  0
   15.4340  -12.1391    4.0313 C   0  0  0  0  0  0  0  0  0  0  0  0
   14.5042  -11.7772    5.1782 C   0  0  0  0  0  0  0  0  0  0  0  0
   14.8712  -12.1010    6.4798 C   0  0  0  0  0  0  0  0  0  0  0  0
   13.2915  -11.1295    4.9667 C   0  0  0  0  0  0  0  0  0  0  0  0
   16.0231  -12.7210    6.7235 F   0  0  0  0  0  0  0  0  0  0  0  0
   14.0222  -11.7719    7.5315 C   0  0  0  0  0  0  0  0  0  0  0  0
   12.4878  -10.8215    5.9955 N   0  0  0  0  0  0  0  0  0  0  0  0
   14.3895  -12.0987    8.8428 N   0  0  0  0  0  0  0  0  0  0  0  0
   12.8214  -11.1243    7.2589 C   0  0  0  0  0  0  0  0  0  0  0  0
   13.6400  -12.7311    9.7222 N   0  0  0  0  0  0  0  0  0  0  0  0
   15.5978  -11.7977    9.3974 C   0  0  0  0  0  0  0  0  0  0  0  0
   14.2947  -12.8785   10.8511 C   0  0  0  0  0  0  0  0  0  0  0  0
   15.5629  -12.2840   10.6703 C   0  0  0  0  0  0  0  0  0  0  0  0
   19.0679   -9.9996    5.1910 H   0  0  0  0  0  0  0  0  0  0  0  0
   21.4261  -10.5529    1.0982 H   0  0  0  0  0  0  0  0  0  0  0  0
   19.2377  -12.3234    0.5890 H   0  0  0  0  0  0  0  0  0  0  0  0
   18.2652  -11.0134    0.5192 H   0  0  0  0  0  0  0  0  0  0  0  0
   16.8495  -12.4370    1.6272 H   0  0  0  0  0  0  0  0  0  0  0  0
   18.0800  -13.2307    2.3499 H   0  0  0  0  0  0  0  0  0  0  0  0
   15.8110  -13.0527    4.1834 H   0  0  0  0  0  0  0  0  0  0  0  0
   14.9231  -12.1282    3.1717 H   0  0  0  0  0  0  0  0  0  0  0  0
   13.0153  -10.8905    4.0357 H   0  0  0  0  0  0  0  0  0  0  0  0
   12.2042  -10.8837    8.0080 H   0  0  0  0  0  0  0  0  0  0  0  0
   16.3571  -11.3171    8.9587 H   0  0  0  0  0  0  0  0  0  0  0  0
   13.9593  -13.3260   11.6803 H   0  0  0  0  0  0  0  0  0  0  0  0
   16.2965  -12.2299   11.3478 H   0  0  0  0  0  0  0  0  0  0  0  0
  1  2  1  0  0  0  0
  2  3  2  0  0  0  0
  2  4  1  0  0  0  0
  3  5  1  0  0  0  0
  3  6  1  0  0  0  0
  4  7  2  0  0  0  0
  6  8  2  0  0  0  0
  7  9  1  0  0  0  0
  8 10  1  0  0  0  0
  9 11  1  0  0  0  0
  9 12  1  0  0  0  0
 11 13  2  0  0  0  0
 11 14  1  0  0  0  0
 14 15  1  0  0  0  0
 15 16  2  0  0  0  0
 15 17  1  0  0  0  0
 16 18  1  0  0  0  0
 16 19  1  0  0  0  0
 17 20  2  0  0  0  0
 19 21  1  0  0  0  0
 19 22  2  0  0  0  0
 21 23  1  0  0  0  0
 21 24  1  0  0  0  0
 23 25  2  0  0  0  0
 24 26  2  0  0  0  0
  7  8  1  0  0  0  0
 10 12  1  0  0  0  0
 20 22  1  0  0  0  0
 25 26  1  0  0  0  0
  4 27  1  0  0  0  0
  6 28  1  0  0  0  0
 10 29  1  0  0  0  0
 10 30  1  0  0  0  0
 12 31  1  0  0  0  0
 12 32  1  0  0  0  0
 14 33  1  0  0  0  0
 14 34  1  0  0  0  0
 17 35  1  0  0  0  0
 22 36  1  0  0  0  0
 24 37  1  0  0  0  0
 25 38  1  0  0  0  0
 26 39  1  0  0  0  0
M  END
> <BIOSOLVEIT.HYDE_ESTIMATED_AFFINITY_LOWER_BOUNDARY [nM]>
53857772.155851

> <BIOSOLVEIT.HYDE_ESTIMATED_AFFINITY_UPPER_BOUNDARY [nM]>
5351088096.033857

> <BIOSOLVEIT.HYDE_LIGAND_EFFICIENCY range: ++, +, 0, -, -->
--

> <BIOSOLVEIT.HYDE_LIGAND_LIPOPHILIC_EFFICIENCY range: ++, +, 0, -, -->
--

> <BIOSOLVEIT.INTER_CLASH range: red, yellow, green>
green

> <BIOSOLVEIT.INTRA_CLASH range: red, yellow, green>
green

> <BIOSOLVEIT.LOGP>
3.845

> <BIOSOLVEIT.MOLECULAR WEIGHT>
391.232

> <BIOSOLVEIT.MOLECULE_CHECKSUM>
LTEuNTQyMDU7MC4wNTkzMDk1

> <BIOSOLVEIT.TORSION_QUALITY range: red, yellow, green, not rotatable>
green

> <BIOSOLVEIT.TPSA>
51.02

> <BIOSOLVEIT.SEESAR_FAVORITE>
favorite

> <smc_score>
0.563

> <QED_score>
0.682

> <distance>
0.662

> <SimilarityPheSA_1>
0.682

> <Smiles>
O=C(Cc1cncc(-n2cccn2)c1F)N1CCc2cc(Cl)c(Cl)cc21

> <Similarity_SkelSpheres>
0.648

> <Cluster No>
341.0

> <QueryID>
MAT-POS-bb423b95-1

> <SimilarityPheSA>
0.6823

> <Postera series>
3-aminopyridine-like

> <PDB_code>
Mpro-x11542

> <Approach>
DGM_focussed_RL

> <ID>
20210618_622

> <SimilarityPheSA_2>
0.748

> <OPTIBRIUM.logD>
2.90932

> <OPTIBRIUM.BBB category>
-

> <OPTIBRIUM.logP>
2.90932

> <OPTIBRIUM.P-gp category>
no

> <OPTIBRIUM.logS>
1.08491

> <OPTIBRIUM.HIA category>
+

> <OPTIBRIUM.PPB90 category>
high

> <OPTIBRIUM.2D6 affinity category>
medium

> <OPTIBRIUM.hERG pIC50>
5.32363

> <OPTIBRIUM.2C9 pKi>
5.59586

> <OPTIBRIUM.BBB log([brain]:[blood])>
-0.314839

> <OPTIBRIUM.logS @ pH7.4>
1.08491

$$$$
Compound 618_1_2
haSeeSAR  07122114523D 1   1.00000     0.00000     0
SeeSAR 11.0.2 hazemaj
 40 42  0  0  0  0            999 V2000
   18.8917   -7.4944    2.8139 F   0  0  0  0  0  0  0  0  0  0  0  0
   20.0757   -8.0149    3.1265 C   0  0  0  0  0  0  0  0  0  0  0  0
   21.1672   -7.1800    3.3426 C   0  0  0  0  0  0  0  0  0  0  0  0
   20.2410   -9.3913    3.2410 C   0  0  0  0  0  0  0  0  0  0  0  0
   21.0214   -5.8621    3.2360 F   0  0  0  0  0  0  0  0  0  0  0  0
   22.4136   -7.7033    3.6698 C   0  0  0  0  0  0  0  0  0  0  0  0
   21.4783   -9.9367    3.5674 C   0  0  0  0  0  0  0  0  0  0  0  0
   19.0502  -10.3057    3.0039 C   0  0  0  0  0  0  0  0  0  0  0  0
   22.5552   -9.0825    3.7790 C   0  0  0  0  0  0  0  0  0  0  0  0
   18.0785  -10.1840    4.1663 C   0  0  0  0  0  0  0  0  0  0  0  0
   23.7410   -9.5961    4.0916 F   0  0  0  0  0  0  0  0  0  0  0  0
   16.9313   -9.7829    3.9703 O   0  0  0  0  0  0  0  0  0  0  0  0
   18.4656  -10.5091    5.3890 N   0  0  0  0  0  0  0  0  0  0  0  0
   17.5346  -11.0053    6.3093 C   0  0  0  0  0  0  0  0  0  0  0  0
   17.5233  -10.7631    7.7001 C   0  0  0  0  0  0  0  0  0  0  0  0
   16.4708  -11.8099    6.0324 C   0  0  0  0  0  0  0  0  0  0  0  0
   16.4893  -11.4099    8.1831 N   0  0  0  0  0  0  0  0  0  0  0  0
   15.8471  -12.0369    7.2202 N   0  0  0  0  0  0  0  0  0  0  0  0
   14.6367  -12.8563    7.3829 C   0  0  0  0  0  0  0  0  0  0  0  0
   13.4690  -12.1825    6.6759 C   0  0  1  0  0  0  0  0  0  0  0  0
   13.4603  -10.6831    6.8774 C   0  0  0  0  0  0  0  0  0  0  0  0
   13.6074  -12.2745    5.1684 C   0  0  0  0  0  0  0  0  0  0  0  0
   12.6998  -10.2012    5.7820 O   0  0  0  0  0  0  0  0  0  0  0  0
   13.0405  -10.9664    4.6411 C   0  0  0  0  0  0  0  0  0  0  0  0
   23.1947   -7.0980    3.8239 H   0  0  0  0  0  0  0  0  0  0  0  0
   21.5916  -10.9270    3.6485 H   0  0  0  0  0  0  0  0  0  0  0  0
   19.3658  -11.2518    2.9309 H   0  0  0  0  0  0  0  0  0  0  0  0
   18.5905  -10.0413    2.1561 H   0  0  0  0  0  0  0  0  0  0  0  0
   19.4233  -10.4004    5.6556 H   0  0  0  0  0  0  0  0  0  0  0  0
   18.1754  -10.2075    8.2158 H   0  0  0  0  0  0  0  0  0  0  0  0
   16.2023  -12.1629    5.1360 H   0  0  0  0  0  0  0  0  0  0  0  0
   14.4270  -12.9518    8.3559 H   0  0  0  0  0  0  0  0  0  0  0  0
   14.7904  -13.7607    6.9848 H   0  0  0  0  0  0  0  0  0  0  0  0
   12.6016  -12.5813    6.9734 H   0  0  0  0  0  0  0  0  0  0  0  0
   14.3898  -10.3149    6.8557 H   0  0  0  0  0  0  0  0  0  0  0  0
   13.0267  -10.4426    7.7459 H   0  0  0  0  0  0  0  0  0  0  0  0
   13.0866  -13.0514    4.8145 H   0  0  0  0  0  0  0  0  0  0  0  0
   14.5682  -12.3713    4.9089 H   0  0  0  0  0  0  0  0  0  0  0  0
   12.2285  -11.1392    4.0835 H   0  0  0  0  0  0  0  0  0  0  0  0
   13.7255  -10.4867    4.0928 H   0  0  0  0  0  0  0  0  0  0  0  0
  1  2  1  0  0  0  0
  2  3  2  0  0  0  0
  2  4  1  0  0  0  0
  3  5  1  0  0  0  0
  3  6  1  0  0  0  0
  4  7  2  0  0  0  0
  4  8  1  0  0  0  0
  6  9  2  0  0  0  0
  8 10  1  0  0  0  0
  9 11  1  0  0  0  0
 10 12  2  0  0  0  0
 10 13  1  0  0  0  0
 13 14  1  0  0  0  0
 14 15  1  0  0  0  0
 14 16  2  0  0  0  0
 15 17  2  0  0  0  0
 16 18  1  0  0  0  0
 18 19  1  0  0  0  0
 19 20  1  0  0  0  0
 20 21  1  0  0  0  0
 20 22  1  0  0  0  0
 21 23  1  0  0  0  0
 22 24  1  0  0  0  0
  7  9  1  0  0  0  0
 17 18  1  0  0  0  0
 23 24  1  0  0  0  0
  6 25  1  0  0  0  0
  7 26  1  0  0  0  0
  8 27  1  0  0  0  0
  8 28  1  0  0  0  0
 13 29  1  0  0  0  0
 15 30  1  0  0  0  0
 16 31  1  0  0  0  0
 19 32  1  0  0  0  0
 19 33  1  0  0  0  0
 20 34  1  0  0  0  0
 21 35  1  0  0  0  0
 21 36  1  0  0  0  0
 22 37  1  0  0  0  0
 22 38  1  0  0  0  0
 24 39  1  0  0  0  0
 24 40  1  0  0  0  0
M  END
> <BIOSOLVEIT.HYDE_ESTIMATED_AFFINITY_LOWER_BOUNDARY [nM]>
10848115.701129

> <BIOSOLVEIT.HYDE_ESTIMATED_AFFINITY_UPPER_BOUNDARY [nM]>
1077824434.043232

> <BIOSOLVEIT.HYDE_LIGAND_EFFICIENCY range: ++, +, 0, -, -->
--

> <BIOSOLVEIT.HYDE_LIGAND_LIPOPHILIC_EFFICIENCY range: ++, +, 0, -, -->
--

> <BIOSOLVEIT.INTER_CLASH range: red, yellow, green>
yellow

> <BIOSOLVEIT.INTRA_CLASH range: red, yellow, green>
yellow

> <BIOSOLVEIT.LOGP>
2.5181

> <BIOSOLVEIT.MOLECULAR WEIGHT>
339.315

> <BIOSOLVEIT.MOLECULE_CHECKSUM>
LTUuNTE0MjI7MC4yMjk3NTk=

> <BIOSOLVEIT.TORSION_QUALITY range: red, yellow, green, not rotatable>
green

> <BIOSOLVEIT.TPSA>
56.15

> <BIOSOLVEIT.SEESAR_FAVORITE>
favorite

> <smc_score>
0.563

> <QED_score>
0.852

> <distance>
0.722

> <SimilarityPheSA_1>
0.692

> <Smiles>
O=C(Cc1cc(F)cc(F)c1F)Nc1cnn(CC2CCOC2)c1

> <Similarity_SkelSpheres>
0.564

> <Cluster No>
338.0

> <QueryID>
JAN-GHE-5a013bed-2

> <SimilarityPheSA>
0.6921

> <Postera series>
3-aminopyridine-like

> <PDB_code>
Mpro-x10466

> <Approach>
DGM_focussed_RL

> <ID>
20210618_617

> <SimilarityPheSA_2>
0.742

> <OPTIBRIUM.logD>
2.48629

> <OPTIBRIUM.BBB category>
-

> <OPTIBRIUM.logP>
2.48629

> <OPTIBRIUM.P-gp category>
no

> <OPTIBRIUM.logS>
0.70691

> <OPTIBRIUM.HIA category>
+

> <OPTIBRIUM.PPB90 category>
high

> <OPTIBRIUM.2D6 affinity category>
high

> <OPTIBRIUM.hERG pIC50>
5.46748

> <OPTIBRIUM.2C9 pKi>
4.97683

> <OPTIBRIUM.BBB log([brain]:[blood])>
-0.037393

> <OPTIBRIUM.logS @ pH7.4>
0.70691

$$$$
Compound 651_1_1
haSeeSAR  07122114523D 1   1.00000     0.00000     0
SeeSAR 11.0.2 hazemaj
 36 38  0  0  0  0            999 V2000
   22.5856  -10.5780    5.6549 Cl  0  0  0  0  0  0  0  0  0  0  0  0
   21.3151   -9.8538    4.6382 C   0  0  0  0  0  0  0  0  0  0  0  0
   21.6472   -8.7199    3.9056 C   0  0  0  0  0  0  0  0  0  0  0  0
   20.0422  -10.4133    4.5730 C   0  0  0  0  0  0  0  0  0  0  0  0
   23.2814   -8.0185    3.9834 Cl  0  0  0  0  0  0  0  0  0  0  0  0
   20.6749   -8.1312    3.1024 C   0  0  0  0  0  0  0  0  0  0  0  0
   19.0625   -9.8123    3.7842 C   0  0  0  0  0  0  0  0  0  0  0  0
   19.6837  -11.6760    5.3408 C   0  0  0  0  0  0  0  0  0  0  0  0
   19.3956   -8.6774    3.0495 C   0  0  0  0  0  0  0  0  0  0  0  0
   17.8150  -10.3236    3.7392 O   0  0  0  0  0  0  0  0  0  0  0  0
   18.1957  -11.7664    5.6317 C   0  0  0  0  0  0  0  0  0  0  0  0
   17.4890  -11.5873    4.2973 C   0  0  1  0  0  0  0  0  0  0  0  0
   15.9953  -11.7358    4.5283 C   0  0  0  0  0  0  0  0  0  0  0  0
   15.3137  -10.7480    4.8023 O   0  0  0  0  0  0  0  0  0  0  0  0
   15.4267  -12.9268    4.4350 N   0  0  0  0  0  0  0  0  0  0  0  0
   13.9809  -13.0705    4.6585 C   0  0  0  0  0  0  0  0  0  0  0  0
   13.7187  -13.3173    6.1352 C   0  0  0  0  0  0  0  0  0  0  0  0
   13.0940  -12.1256    6.7279 N   0  0  0  0  0  0  0  0  0  0  0  0
   12.1840  -11.3673    6.1652 N   0  0  0  0  0  0  0  0  0  0  0  0
   13.3796  -11.6228    7.9607 C   0  0  0  0  0  0  0  0  0  0  0  0
   11.8553  -10.4207    6.9384 N   0  0  0  0  0  0  0  0  0  0  0  0
   12.5782  -10.5282    8.0890 C   0  0  0  0  0  0  0  0  0  0  0  0
   20.8949   -7.3173    2.5645 H   0  0  0  0  0  0  0  0  0  0  0  0
   20.1822  -11.6787    6.2076 H   0  0  0  0  0  0  0  0  0  0  0  0
   19.9547  -12.4710    4.7981 H   0  0  0  0  0  0  0  0  0  0  0  0
   18.7021   -8.2462    2.4722 H   0  0  0  0  0  0  0  0  0  0  0  0
   17.9228  -11.0446    6.2678 H   0  0  0  0  0  0  0  0  0  0  0  0
   17.9731  -12.6586    6.0246 H   0  0  0  0  0  0  0  0  0  0  0  0
   17.7926  -12.3056    3.6713 H   0  0  0  0  0  0  0  0  0  0  0  0
   15.9805  -13.7291    4.2124 H   0  0  0  0  0  0  0  0  0  0  0  0
   13.6364  -13.8429    4.1251 H   0  0  0  0  0  0  0  0  0  0  0  0
   13.5146  -12.2334    4.3726 H   0  0  0  0  0  0  0  0  0  0  0  0
   14.5835  -13.5066    6.6003 H   0  0  0  0  0  0  0  0  0  0  0  0
   13.1062  -14.1010    6.2386 H   0  0  0  0  0  0  0  0  0  0  0  0
   14.0347  -11.9793    8.6269 H   0  0  0  0  0  0  0  0  0  0  0  0
   12.5296   -9.9178    8.8796 H   0  0  0  0  0  0  0  0  0  0  0  0
  1  2  1  0  0  0  0
  2  3  2  0  0  0  0
  2  4  1  0  0  0  0
  3  5  1  0  0  0  0
  3  6  1  0  0  0  0
  4  7  2  0  0  0  0
  4  8  1  0  0  0  0
  6  9  2  0  0  0  0
  7 10  1  0  0  0  0
  8 11  1  0  0  0  0
 10 12  1  0  0  0  0
 12 13  1  0  0  0  0
 13 14  2  0  0  0  0
 13 15  1  0  0  0  0
 15 16  1  0  0  0  0
 16 17  1  0  0  0  0
 17 18  1  0  0  0  0
 18 19  1  0  0  0  0
 18 20  1  0  0  0  0
 19 21  2  0  0  0  0
 20 22  2  0  0  0  0
  7  9  1  0  0  0  0
 11 12  1  0  0  0  0
 21 22  1  0  0  0  0
  6 23  1  0  0  0  0
  8 24  1  0  0  0  0
  8 25  1  0  0  0  0
  9 26  1  0  0  0  0
 11 27  1  0  0  0  0
 11 28  1  0  0  0  0
 12 29  1  0  0  0  0
 15 30  1  0  0  0  0
 16 31  1  0  0  0  0
 16 32  1  0  0  0  0
 17 33  1  0  0  0  0
 17 34  1  0  0  0  0
 20 35  1  0  0  0  0
 22 36  1  0  0  0  0
M  END
> <BIOSOLVEIT.HYDE_ESTIMATED_AFFINITY_LOWER_BOUNDARY [nM]>
9771869909.911940

> <BIOSOLVEIT.HYDE_ESTIMATED_AFFINITY_UPPER_BOUNDARY [nM]>
970893051417.108765

> <BIOSOLVEIT.HYDE_LIGAND_EFFICIENCY range: ++, +, 0, -, -->
--

> <BIOSOLVEIT.HYDE_LIGAND_LIPOPHILIC_EFFICIENCY range: ++, +, 0, -, -->
--

> <BIOSOLVEIT.INTER_CLASH range: red, yellow, green>
green

> <BIOSOLVEIT.INTRA_CLASH range: red, yellow, green>
green

> <BIOSOLVEIT.LOGP>
2.0949

> <BIOSOLVEIT.MOLECULAR WEIGHT>
341.197

> <BIOSOLVEIT.MOLECULE_CHECKSUM>
MTEuMzUwODsw

> <BIOSOLVEIT.TORSION_QUALITY range: red, yellow, green, not rotatable>
red

> <BIOSOLVEIT.TPSA>
69.04

> <BIOSOLVEIT.SEESAR_FAVORITE>
favorite

> <smc_score>
0.625

> <QED_score>
0.925

> <distance>
0.74

> <SimilarityPheSA_1>
0.642

> <Smiles>
O=C(NCCn1ccnn1)C1CCc2c(ccc(Cl)c2Cl)O1

> <Similarity_SkelSpheres>
0.586

> <Cluster No>
360.0

> <QueryID>
MAT-POS-199e2e7c-1

> <SimilarityPheSA>
0.6417

> <Postera series>
3-aminopyridine-like

> <PDB_code>
Mpro-x12000

> <Approach>
DGM_focussed_RL

> <ID>
20210618_650

> <SimilarityPheSA_2>
0.67

> <OPTIBRIUM.logD>
2.29464

> <OPTIBRIUM.BBB category>
-

> <OPTIBRIUM.logP>
2.29464

> <OPTIBRIUM.P-gp category>
no

> <OPTIBRIUM.logS>
2.51697

> <OPTIBRIUM.HIA category>
+

> <OPTIBRIUM.PPB90 category>
high

> <OPTIBRIUM.2D6 affinity category>
high

> <OPTIBRIUM.hERG pIC50>
4.46875

> <OPTIBRIUM.2C9 pKi>
4.8956

> <OPTIBRIUM.BBB log([brain]:[blood])>
-0.301229

> <OPTIBRIUM.logS @ pH7.4>
2.51697

$$$$
Compound 657_1_3
haSeeSAR  07122114523D 1   1.00000     0.00000     0
SeeSAR 11.0.2 hazemaj
 37 40  0  0  0  0            999 V2000
   19.0666   -7.0643    2.3323 Cl  0  0  0  0  0  0  0  0  0  0  0  0
   20.0163   -8.1844    3.3389 C   0  0  0  0  0  0  0  0  0  0  0  0
   21.2226   -7.7525    3.8779 C   0  0  0  0  0  0  0  0  0  0  0  0
   19.5732   -9.4798    3.5940 C   0  0  0  0  0  0  0  0  0  0  0  0
   21.8159   -6.1006    3.5816 Cl  0  0  0  0  0  0  0  0  0  0  0  0
   22.0072   -8.5914    4.6594 C   0  0  0  0  0  0  0  0  0  0  0  0
   20.3495  -10.3234    4.3816 C   0  0  0  0  0  0  0  0  0  0  0  0
   21.5365   -9.8763    4.8870 C   0  0  0  0  0  0  0  0  0  0  0  0
   20.5710  -11.6813    5.0222 C   0  0  1  0  0  0  0  0  0  0  0  0
   21.8898  -11.1777    5.5615 C   0  0  0  0  0  0  0  0  0  0  0  0
   19.5835  -11.9654    6.1453 C   0  0  0  0  0  0  0  0  0  0  0  0
   19.8014  -11.5382    7.2790 O   0  0  0  0  0  0  0  0  0  0  0  0
   18.4272  -12.7129    5.8888 N   0  0  0  0  0  0  0  0  0  0  0  0
   17.3326  -12.6092    4.9283 C   0  0  2  0  0  0  0  0  0  0  0  0
   17.8158  -13.9035    6.4761 C   0  0  0  0  0  0  0  0  0  0  0  0
   16.1450  -11.8019    5.4392 C   0  0  0  0  0  0  0  0  0  0  0  0
   17.2256  -14.1091    5.1042 C   0  0  0  0  0  0  0  0  0  0  0  0
   16.1432  -10.6064    5.3359 O   0  0  0  0  0  0  0  0  0  0  0  0
   15.0797  -12.4412    6.0166 N   0  0  0  0  0  0  0  0  0  0  0  0
   14.0268  -11.7254    6.4697 N   0  0  0  0  0  0  0  0  0  0  0  0
   13.8326  -11.3432    7.7160 N   0  0  0  0  0  0  0  0  0  0  0  0
   12.9845  -11.2877    5.7061 C   0  0  0  0  0  0  0  0  0  0  0  0
   12.7022  -10.6668    7.7737 C   0  0  0  0  0  0  0  0  0  0  0  0
   12.1719  -10.6405    6.5138 N   0  0  0  0  0  0  0  0  0  0  0  0
   18.7054   -9.8004    3.2146 H   0  0  0  0  0  0  0  0  0  0  0  0
   22.8772   -8.2812    5.0428 H   0  0  0  0  0  0  0  0  0  0  0  0
   20.6618  -12.4291    4.3645 H   0  0  0  0  0  0  0  0  0  0  0  0
   21.9511  -11.1349    6.5586 H   0  0  0  0  0  0  0  0  0  0  0  0
   22.6997  -11.6373    5.1970 H   0  0  0  0  0  0  0  0  0  0  0  0
   17.6323  -12.3378    4.0137 H   0  0  0  0  0  0  0  0  0  0  0  0
   17.1525  -13.7275    7.2035 H   0  0  0  0  0  0  0  0  0  0  0  0
   18.4580  -14.6097    6.7742 H   0  0  0  0  0  0  0  0  0  0  0  0
   17.7924  -14.6465    4.4797 H   0  0  0  0  0  0  0  0  0  0  0  0
   16.2918  -14.4670    5.0983 H   0  0  0  0  0  0  0  0  0  0  0  0
   15.0813  -13.4375    6.1028 H   0  0  0  0  0  0  0  0  0  0  0  0
   12.8620  -11.4307    4.7240 H   0  0  0  0  0  0  0  0  0  0  0  0
   12.3048  -10.2489    8.5908 H   0  0  0  0  0  0  0  0  0  0  0  0
  1  2  1  0  0  0  0
  2  3  2  0  0  0  0
  2  4  1  0  0  0  0
  3  5  1  0  0  0  0
  3  6  1  0  0  0  0
  4  7  2  0  0  0  0
  6  8  2  0  0  0  0
  7  9  1  0  0  0  0
  8 10  1  0  0  0  0
  9 11  1  0  0  0  0
 11 12  2  0  0  0  0
 11 13  1  0  0  0  0
 13 14  1  0  0  0  0
 13 15  1  0  0  0  0
 14 16  1  0  0  0  0
 14 17  1  0  0  0  0
 16 18  2  0  0  0  0
 16 19  1  0  0  0  0
 19 20  1  0  0  0  0
 20 21  1  0  0  0  0
 20 22  1  0  0  0  0
 21 23  2  0  0  0  0
 22 24  2  0  0  0  0
  7  8  1  0  0  0  0
  9 10  1  0  0  0  0
 15 17  1  0  0  0  0
 23 24  1  0  0  0  0
  4 25  1  0  0  0  0
  6 26  1  0  0  0  0
  9 27  1  0  0  0  0
 10 28  1  0  0  0  0
 10 29  1  0  0  0  0
 14 30  1  0  0  0  0
 15 31  1  0  0  0  0
 15 32  1  0  0  0  0
 17 33  1  0  0  0  0
 17 34  1  0  0  0  0
 19 35  1  0  0  0  0
 22 36  1  0  0  0  0
 23 37  1  0  0  0  0
M  END
> <BIOSOLVEIT.HYDE_ESTIMATED_AFFINITY_LOWER_BOUNDARY [nM]>
33653740.590590

> <BIOSOLVEIT.HYDE_ESTIMATED_AFFINITY_UPPER_BOUNDARY [nM]>
3343698104.336777

> <BIOSOLVEIT.HYDE_LIGAND_EFFICIENCY range: ++, +, 0, -, -->
--

> <BIOSOLVEIT.HYDE_LIGAND_LIPOPHILIC_EFFICIENCY range: ++, +, 0, -, -->
--

> <BIOSOLVEIT.INTER_CLASH range: red, yellow, green>
green

> <BIOSOLVEIT.INTRA_CLASH range: red, yellow, green>
green

> <BIOSOLVEIT.LOGP>
1.5958

> <BIOSOLVEIT.MOLECULAR WEIGHT>
366.207

> <BIOSOLVEIT.MOLECULE_CHECKSUM>
LTIuNzA3NzE7MC4xMTI4MjE=

> <BIOSOLVEIT.TORSION_QUALITY range: red, yellow, green, not rotatable>
yellow

> <BIOSOLVEIT.TPSA>
80.12

> <BIOSOLVEIT.SEESAR_FAVORITE>
favorite

> <smc_score>
0.563

> <QED_score>
0.895

> <distance>
0.724

> <SimilarityPheSA_1>
0.637

> <Smiles>
O=C(Nn1cncn1)C1CCN1C(=O)C1Cc2cc(Cl)c(Cl)cc21

> <Similarity_SkelSpheres>
0.56

> <Cluster No>
363.0

> <QueryID>
MAT-POS-bb423b95-1

> <SimilarityPheSA>
0.6374

> <Postera series>
3-aminopyridine-like

> <PDB_code>
Mpro-x11542

> <Approach>
DGM_focussed_RL

> <ID>
20210618_656

> <SimilarityPheSA_2>
0.73

> <OPTIBRIUM.logD>
1.82382

> <OPTIBRIUM.BBB category>
-

> <OPTIBRIUM.logP>
1.82382

> <OPTIBRIUM.P-gp category>
no

> <OPTIBRIUM.logS>
2.74313

> <OPTIBRIUM.HIA category>
+

> <OPTIBRIUM.PPB90 category>
low

> <OPTIBRIUM.2D6 affinity category>
medium

> <OPTIBRIUM.hERG pIC50>
4.44994

> <OPTIBRIUM.2C9 pKi>
4.87927

> <OPTIBRIUM.BBB log([brain]:[blood])>
-0.832552

> <OPTIBRIUM.logS @ pH7.4>
2.74313

$$$$
Compound 660_1_1
haSeeSAR  07122114523D 1   1.00000     0.00000     0
SeeSAR 11.0.2 hazemaj
 35 37  0  0  0  0            999 V2000
   21.3451   -6.3291    3.3671 Cl  0  0  0  0  0  0  0  0  0  0  0  0
   21.1578   -8.0703    3.6878 C   0  0  0  0  0  0  0  0  0  0  0  0
   22.1549   -8.7638    4.3654 C   0  0  0  0  0  0  0  0  0  0  0  0
   20.0093   -8.7245    3.2574 C   0  0  0  0  0  0  0  0  0  0  0  0
   23.6162   -7.9030    4.9051 Cl  0  0  0  0  0  0  0  0  0  0  0  0
   22.0182  -10.1243    4.6227 C   0  0  0  0  0  0  0  0  0  0  0  0
   19.8781  -10.0840    3.5168 C   0  0  0  0  0  0  0  0  0  0  0  0
   20.8715  -10.7840    4.1932 C   0  0  0  0  0  0  0  0  0  0  0  0
   18.6291  -10.8153    3.0540 C   0  0  1  0  0  0  0  0  0  0  0  0
   18.9610  -12.1553    2.7215 O   0  0  0  0  0  0  0  0  0  0  0  0
   17.5966  -10.8109    4.1695 C   0  0  0  0  0  0  0  0  0  0  0  0
   16.6235  -10.0597    4.1045 O   0  0  0  0  0  0  0  0  0  0  0  0
   17.7437  -11.6143    5.2102 N   0  0  0  0  0  0  0  0  0  0  0  0
   16.7452  -11.6099    6.2891 C   0  0  0  0  0  0  0  0  0  0  0  0
   15.6340  -12.5938    5.9554 C   0  0  0  0  0  0  0  0  0  0  0  0
   14.2987  -12.2188    5.9224 C   0  0  0  0  0  0  0  0  0  0  0  0
   15.9119  -13.9207    5.6689 C   0  0  0  0  0  0  0  0  0  0  0  0
   13.6787  -10.6675    6.2364 S   0  0  0  0  0  0  0  0  0  0  0  0
   13.2062  -13.0088    5.6359 C   0  0  0  0  0  0  0  0  0  0  0  0
   14.8557  -14.7731    5.3754 C   0  0  0  0  0  0  0  0  0  0  0  0
   12.0774  -10.9973    6.0120 N   0  0  0  0  0  0  0  0  0  0  0  0
   13.5357  -14.3320    5.3576 C   0  0  0  0  0  0  0  0  0  0  0  0
   11.9834  -12.2778    5.6980 C   0  0  0  0  0  0  0  0  0  0  0  0
   15.1663  -16.0343    5.1120 F   0  0  0  0  0  0  0  0  0  0  0  0
   19.2914   -8.2269    2.7705 H   0  0  0  0  0  0  0  0  0  0  0  0
   22.7354  -10.6217    5.1106 H   0  0  0  0  0  0  0  0  0  0  0  0
   20.7613  -11.7620    4.3708 H   0  0  0  0  0  0  0  0  0  0  0  0
   18.2526  -10.3558    2.2495 H   0  0  0  0  0  0  0  0  0  0  0  0
   18.1311  -12.7134    2.7182 H   0  0  0  0  0  0  0  0  0  0  0  0
   18.5342  -12.2245    5.2630 H   0  0  0  0  0  0  0  0  0  0  0  0
   16.3604  -10.6918    6.3833 H   0  0  0  0  0  0  0  0  0  0  0  0
   17.1814  -11.8784    7.1479 H   0  0  0  0  0  0  0  0  0  0  0  0
   16.8535  -14.2575    5.6733 H   0  0  0  0  0  0  0  0  0  0  0  0
   12.8069  -14.9812    5.1399 H   0  0  0  0  0  0  0  0  0  0  0  0
   11.1012  -12.7112    5.5137 H   0  0  0  0  0  0  0  0  0  0  0  0
  1  2  1  0  0  0  0
  2  3  2  0  0  0  0
  2  4  1  0  0  0  0
  3  5  1  0  0  0  0
  3  6  1  0  0  0  0
  4  7  2  0  0  0  0
  6  8  2  0  0  0  0
  7  9  1  0  0  0  0
  9 10  1  0  0  0  0
  9 11  1  0  0  0  0
 11 12  2  0  0  0  0
 11 13  1  0  0  0  0
 13 14  1  0  0  0  0
 14 15  1  0  0  0  0
 15 16  2  0  0  0  0
 15 17  1  0  0  0  0
 16 18  1  0  0  0  0
 16 19  1  0  0  0  0
 17 20  2  0  0  0  0
 18 21  1  0  0  0  0
 19 22  2  0  0  0  0
 19 23  1  0  0  0  0
 20 24  1  0  0  0  0
  7  8  1  0  0  0  0
 20 22  1  0  0  0  0
 21 23  2  0  0  0  0
  4 25  1  0  0  0  0
  6 26  1  0  0  0  0
  8 27  1  0  0  0  0
  9 28  1  0  0  0  0
 10 29  1  0  0  0  0
 13 30  1  0  0  0  0
 14 31  1  0  0  0  0
 14 32  1  0  0  0  0
 17 33  1  0  0  0  0
 22 34  1  0  0  0  0
 23 35  1  0  0  0  0
M  END
> <BIOSOLVEIT.HYDE_ESTIMATED_AFFINITY_LOWER_BOUNDARY [nM]>
275385252.037208

> <BIOSOLVEIT.HYDE_ESTIMATED_AFFINITY_UPPER_BOUNDARY [nM]>
27361152996.364845

> <BIOSOLVEIT.HYDE_LIGAND_EFFICIENCY range: ++, +, 0, -, -->
--

> <BIOSOLVEIT.HYDE_LIGAND_LIPOPHILIC_EFFICIENCY range: ++, +, 0, -, -->
--

> <BIOSOLVEIT.INTER_CLASH range: red, yellow, green>
green

> <BIOSOLVEIT.INTRA_CLASH range: red, yellow, green>
green

> <BIOSOLVEIT.LOGP>
4.092

> <BIOSOLVEIT.MOLECULAR WEIGHT>
385.244

> <BIOSOLVEIT.MOLECULE_CHECKSUM>
Mi41MDMxODsw

> <BIOSOLVEIT.TORSION_QUALITY range: red, yellow, green, not rotatable>
green

> <BIOSOLVEIT.TPSA>
62.22

> <BIOSOLVEIT.SEESAR_FAVORITE>
favorite

> <smc_score>
0.813

> <QED_score>
0.711

> <distance>
0.597

> <SimilarityPheSA_1>
0.632

> <Smiles>
O=C(NCc1cc(F)cc2cnsc12)C(O)c1ccc(Cl)c(Cl)c1

> <Similarity_SkelSpheres>
0.723

> <Cluster No>
365.0

> <QueryID>
MAT-POS-3b92565d-1

> <SimilarityPheSA>
0.6324

> <Postera series>
3-aminopyridine-like

> <PDB_code>
Mpro-x11609

> <Approach>
DGM_focussed_RL

> <ID>
20210618_659

> <SimilarityPheSA_2>
0.742

> <OPTIBRIUM.logD>
3.09856

> <OPTIBRIUM.BBB category>
+

> <OPTIBRIUM.logP>
3.09856

> <OPTIBRIUM.P-gp category>
no

> <OPTIBRIUM.logS>
0.886019

> <OPTIBRIUM.HIA category>
+

> <OPTIBRIUM.PPB90 category>
high

> <OPTIBRIUM.2D6 affinity category>
high

> <OPTIBRIUM.hERG pIC50>
4.77052

> <OPTIBRIUM.2C9 pKi>
5.39521

> <OPTIBRIUM.BBB log([brain]:[blood])>
-0.851755

> <OPTIBRIUM.logS @ pH7.4>
0.886019

$$$$
Compound 746_1_2
haSeeSAR  07122114523D 1   1.00000     0.00000     0
SeeSAR 11.0.2 hazemaj
 42 43  0  0  0  0            999 V2000
   19.4989   -7.2735    2.6089 Cl  0  0  0  0  0  0  0  0  0  0  0  0
   20.1056   -8.7587    3.3809 C   0  0  0  0  0  0  0  0  0  0  0  0
   21.3706   -8.7754    3.9587 C   0  0  0  0  0  0  0  0  0  0  0  0
   19.3044   -9.8944    3.4011 C   0  0  0  0  0  0  0  0  0  0  0  0
   22.3772   -7.3080    3.9184 Cl  0  0  0  0  0  0  0  0  0  0  0  0
   21.8540   -9.9300    4.5660 C   0  0  0  0  0  0  0  0  0  0  0  0
   19.7926  -11.0456    4.0090 C   0  0  0  0  0  0  0  0  0  0  0  0
   21.0568  -11.0695    4.5881 C   0  0  0  0  0  0  0  0  0  0  0  0
   18.9301  -12.2963    4.0409 C   0  0  0  0  0  0  0  0  0  0  0  0
   17.5109  -11.9135    4.0229 N   0  0  0  0  0  0  0  0  0  0  0  0
   16.9434  -11.4257    5.1139 C   0  0  0  0  0  0  0  0  0  0  0  0
   16.7223  -12.0726    2.7925 C   0  0  0  0  0  0  0  0  0  0  0  0
   16.4550  -10.2959    5.1011 O   0  0  0  0  0  0  0  0  0  0  0  0
   16.8944  -12.2607    6.3834 C   0  0  1  0  0  0  0  0  0  0  0  0
   16.3295  -11.4789    7.5613 C   0  0  0  0  0  0  0  0  0  0  0  0
   16.0998  -13.5486    6.2055 C   0  0  0  0  0  0  0  0  0  0  0  0
   14.8521  -11.8361    7.6938 C   0  0  0  0  0  0  0  0  0  0  0  0
   14.6789  -13.2795    5.7313 C   0  0  0  0  0  0  0  0  0  0  0  0
   14.2605  -12.0146    6.3635 N   0  0  0  0  0  0  0  0  0  0  0  0
   13.3844  -11.1037    5.7610 C   0  0  0  0  0  0  0  0  0  0  0  0
   12.7400  -10.3180    6.4559 O   0  0  0  0  0  0  0  0  0  0  0  0
   13.2290  -11.0850    4.2492 C   0  0  0  0  0  0  0  0  0  0  0  0
   18.3944   -9.8837    2.9866 H   0  0  0  0  0  0  0  0  0  0  0  0
   22.7635   -9.9405    4.9816 H   0  0  0  0  0  0  0  0  0  0  0  0
   21.3928  -11.9063    5.0204 H   0  0  0  0  0  0  0  0  0  0  0  0
   19.1250  -12.8145    4.8736 H   0  0  0  0  0  0  0  0  0  0  0  0
   19.1329  -12.8616    3.2413 H   0  0  0  0  0  0  0  0  0  0  0  0
   15.7845  -11.7662    2.9558 H   0  0  0  0  0  0  0  0  0  0  0  0
   17.1298  -11.5243    2.0622 H   0  0  0  0  0  0  0  0  0  0  0  0
   16.7162  -13.0354    2.5227 H   0  0  0  0  0  0  0  0  0  0  0  0
   17.8338  -12.5153    6.6133 H   0  0  0  0  0  0  0  0  0  0  0  0
   16.4285  -10.4975    7.3967 H   0  0  0  0  0  0  0  0  0  0  0  0
   16.8158  -11.7272    8.3989 H   0  0  0  0  0  0  0  0  0  0  0  0
   16.0623  -14.0288    7.0819 H   0  0  0  0  0  0  0  0  0  0  0  0
   16.5623  -14.1229    5.5302 H   0  0  0  0  0  0  0  0  0  0  0  0
   14.3746  -11.0996    8.1729 H   0  0  0  0  0  0  0  0  0  0  0  0
   14.7617  -12.6855    8.2136 H   0  0  0  0  0  0  0  0  0  0  0  0
   14.0735  -14.0237    6.0134 H   0  0  0  0  0  0  0  0  0  0  0  0
   14.6577  -13.1918    4.7354 H   0  0  0  0  0  0  0  0  0  0  0  0
   12.5694  -10.3793    3.9906 H   0  0  0  0  0  0  0  0  0  0  0  0
   14.1128  -10.8864    3.8256 H   0  0  0  0  0  0  0  0  0  0  0  0
   12.9025  -11.9769    3.9366 H   0  0  0  0  0  0  0  0  0  0  0  0
  1  2  1  0  0  0  0
  2  3  2  0  0  0  0
  2  4  1  0  0  0  0
  3  5  1  0  0  0  0
  3  6  1  0  0  0  0
  4  7  2  0  0  0  0
  6  8  2  0  0  0  0
  7  9  1  0  0  0  0
  9 10  1  0  0  0  0
 10 11  1  0  0  0  0
 10 12  1  0  0  0  0
 11 13  2  0  0  0  0
 11 14  1  0  0  0  0
 14 15  1  0  0  0  0
 14 16  1  0  0  0  0
 15 17  1  0  0  0  0
 16 18  1  0  0  0  0
 17 19  1  0  0  0  0
 19 20  1  0  0  0  0
 20 21  2  0  0  0  0
 20 22  1  0  0  0  0
  7  8  1  0  0  0  0
 18 19  1  0  0  0  0
  4 23  1  0  0  0  0
  6 24  1  0  0  0  0
  8 25  1  0  0  0  0
  9 26  1  0  0  0  0
  9 27  1  0  0  0  0
 12 28  1  0  0  0  0
 12 29  1  0  0  0  0
 12 30  1  0  0  0  0
 14 31  1  0  0  0  0
 15 32  1  0  0  0  0
 15 33  1  0  0  0  0
 16 34  1  0  0  0  0
 16 35  1  0  0  0  0
 17 36  1  0  0  0  0
 17 37  1  0  0  0  0
 18 38  1  0  0  0  0
 18 39  1  0  0  0  0
 22 40  1  0  0  0  0
 22 41  1  0  0  0  0
 22 42  1  0  0  0  0
M  END
> <BIOSOLVEIT.HYDE_ESTIMATED_AFFINITY_LOWER_BOUNDARY [nM]>
11999769.667331

> <BIOSOLVEIT.HYDE_ESTIMATED_AFFINITY_UPPER_BOUNDARY [nM]>
1192248064.702510

> <BIOSOLVEIT.HYDE_LIGAND_EFFICIENCY range: ++, +, 0, -, -->
--

> <BIOSOLVEIT.HYDE_LIGAND_LIPOPHILIC_EFFICIENCY range: ++, +, 0, -, -->
--

> <BIOSOLVEIT.INTER_CLASH range: red, yellow, green>
green

> <BIOSOLVEIT.INTRA_CLASH range: red, yellow, green>
green

> <BIOSOLVEIT.LOGP>
3.2103

> <BIOSOLVEIT.MOLECULAR WEIGHT>
343.252

> <BIOSOLVEIT.MOLECULE_CHECKSUM>
LTUuMjY0MTswLjIzOTI3Nw==

> <BIOSOLVEIT.TORSION_QUALITY range: red, yellow, green, not rotatable>
yellow

> <BIOSOLVEIT.TPSA>
40.62

> <BIOSOLVEIT.SEESAR_FAVORITE>
favorite

> <smc_score>
0.688

> <QED_score>
0.846

> <distance>
0.721

> <SimilarityPheSA_1>
0.652

> <Smiles>
CC(=O)N1CCC(C(=O)N(C)Cc2ccc(Cl)c(Cl)c2)CC1

> <Similarity_SkelSpheres>
0.656

> <Cluster No>
7.0

> <QueryID>
JAN-GHE-5a013bed-2

> <SimilarityPheSA>
0.6523

> <Postera series>
3-aminopyridine-like

> <PDB_code>
Mpro-x10466

> <Approach>
DGM_exploratory_RL

> <ID>
20210628_16

> <SimilarityPheSA_2>
0.686

> <OPTIBRIUM.logD>
2.10238

> <OPTIBRIUM.BBB category>
+

> <OPTIBRIUM.logP>
2.10238

> <OPTIBRIUM.P-gp category>
no

> <OPTIBRIUM.logS>
3.56698

> <OPTIBRIUM.HIA category>
+

> <OPTIBRIUM.PPB90 category>
low

> <OPTIBRIUM.2D6 affinity category>
medium

> <OPTIBRIUM.hERG pIC50>
4.79214

> <OPTIBRIUM.2C9 pKi>
4.63345

> <OPTIBRIUM.BBB log([brain]:[blood])>
-0.520604

> <OPTIBRIUM.logS @ pH7.4>
3.56698

$$$$
Compound 765_1_1
haSeeSAR  07122114523D 1   1.00000     0.00000     0
SeeSAR 11.0.2 hazemaj
 37 38  0  0  0  0            999 V2000
   21.4695   -6.3604    3.3657 Cl  0  0  0  0  0  0  0  0  0  0  0  0
   21.4505   -8.0072    4.0415 C   0  0  0  0  0  0  0  0  0  0  0  0
   20.3654   -8.8399    3.7945 C   0  0  0  0  0  0  0  0  0  0  0  0
   22.5228   -8.4446    4.8105 C   0  0  0  0  0  0  0  0  0  0  0  0
   19.0036   -8.2596    2.8060 Cl  0  0  0  0  0  0  0  0  0  0  0  0
   20.3329  -10.1290    4.3151 C   0  0  0  0  0  0  0  0  0  0  0  0
   22.4880   -9.7343    5.3293 C   0  0  0  0  0  0  0  0  0  0  0  0
   21.4039  -10.5691    5.0857 C   0  0  0  0  0  0  0  0  0  0  0  0
   23.5045  -10.1714    6.0664 F   0  0  0  0  0  0  0  0  0  0  0  0
   21.3833  -11.9764    5.6610 C   0  0  0  0  0  0  0  0  0  0  0  0
   20.0800  -12.1981    6.4110 C   0  0  0  0  0  0  0  0  0  0  0  0
   19.9912  -11.8822    7.5975 O   0  0  0  0  0  0  0  0  0  0  0  0
   19.0410  -12.7306    5.7888 N   0  0  0  0  0  0  0  0  0  0  0  0
   17.7805  -12.9451    6.5142 C   0  0  0  0  0  0  0  0  0  0  0  0
   17.0320  -11.6272    6.6297 C   0  0  0  0  0  0  0  0  0  0  0  0
   15.8329  -11.6420    5.6958 C   0  0  2  0  0  0  0  0  0  0  0  0
   15.9926  -10.6378    4.7046 O   0  0  0  0  0  0  0  0  0  0  0  0
   14.5676  -11.3711    6.4918 C   0  0  0  0  0  0  0  0  0  0  0  0
   13.4370  -10.8395    5.8812 C   0  0  0  0  0  0  0  0  0  0  0  0
   14.4871  -11.6405    7.8540 C   0  0  0  0  0  0  0  0  0  0  0  0
   12.3201  -10.6002    6.5840 N   0  0  0  0  0  0  0  0  0  0  0  0
   13.3514  -11.3866    8.5212 N   0  0  0  0  0  0  0  0  0  0  0  0
   12.2816  -10.8740    7.8965 C   0  0  0  0  0  0  0  0  0  0  0  0
   23.3028   -7.8444    4.9869 H   0  0  0  0  0  0  0  0  0  0  0  0
   19.5530  -10.7294    4.1385 H   0  0  0  0  0  0  0  0  0  0  0  0
   22.1529  -12.0911    6.2890 H   0  0  0  0  0  0  0  0  0  0  0  0
   21.4574  -12.6414    4.9178 H   0  0  0  0  0  0  0  0  0  0  0  0
   19.1130  -12.9872    4.8249 H   0  0  0  0  0  0  0  0  0  0  0  0
   17.9782  -13.2975    7.4289 H   0  0  0  0  0  0  0  0  0  0  0  0
   17.2179  -13.6055    6.0169 H   0  0  0  0  0  0  0  0  0  0  0  0
   17.6410  -10.8749    6.3786 H   0  0  0  0  0  0  0  0  0  0  0  0
   16.7194  -11.5029    7.5715 H   0  0  0  0  0  0  0  0  0  0  0  0
   15.7644  -12.5372    5.2554 H   0  0  0  0  0  0  0  0  0  0  0  0
   15.9292  -11.0524    3.7968 H   0  0  0  0  0  0  0  0  0  0  0  0
   13.4569  -10.6325    4.9031 H   0  0  0  0  0  0  0  0  0  0  0  0
   15.2755  -12.0231    8.3359 H   0  0  0  0  0  0  0  0  0  0  0  0
   11.4456  -10.6940    8.4149 H   0  0  0  0  0  0  0  0  0  0  0  0
  1  2  1  0  0  0  0
  2  3  2  0  0  0  0
  2  4  1  0  0  0  0
  3  5  1  0  0  0  0
  3  6  1  0  0  0  0
  4  7  2  0  0  0  0
  6  8  2  0  0  0  0
  7  9  1  0  0  0  0
  8 10  1  0  0  0  0
 10 11  1  0  0  0  0
 11 12  2  0  0  0  0
 11 13  1  0  0  0  0
 13 14  1  0  0  0  0
 14 15  1  0  0  0  0
 15 16  1  0  0  0  0
 16 17  1  0  0  0  0
 16 18  1  0  0  0  0
 18 19  2  0  0  0  0
 18 20  1  0  0  0  0
 19 21  1  0  0  0  0
 20 22  2  0  0  0  0
 21 23  2  0  0  0  0
  7  8  1  0  0  0  0
 22 23  1  0  0  0  0
  4 24  1  0  0  0  0
  6 25  1  0  0  0  0
 10 26  1  0  0  0  0
 10 27  1  0  0  0  0
 13 28  1  0  0  0  0
 14 29  1  0  0  0  0
 14 30  1  0  0  0  0
 15 31  1  0  0  0  0
 15 32  1  0  0  0  0
 16 33  1  0  0  0  0
 17 34  1  0  0  0  0
 19 35  1  0  0  0  0
 20 36  1  0  0  0  0
 23 37  1  0  0  0  0
M  END
> <BIOSOLVEIT.HYDE_ESTIMATED_AFFINITY_LOWER_BOUNDARY [nM]>
1014331.048412

> <BIOSOLVEIT.HYDE_ESTIMATED_AFFINITY_UPPER_BOUNDARY [nM]>
100779786.859503

> <BIOSOLVEIT.HYDE_LIGAND_EFFICIENCY range: ++, +, 0, -, -->
--

> <BIOSOLVEIT.HYDE_LIGAND_LIPOPHILIC_EFFICIENCY range: ++, +, 0, -, -->
--

> <BIOSOLVEIT.INTER_CLASH range: red, yellow, green>
green

> <BIOSOLVEIT.INTRA_CLASH range: red, yellow, green>
green

> <BIOSOLVEIT.LOGP>
2.7049

> <BIOSOLVEIT.MOLECULAR WEIGHT>
358.199

> <BIOSOLVEIT.MOLECULE_CHECKSUM>
LTExLjM4ODg7MC40OTUxNjM=

> <BIOSOLVEIT.TORSION_QUALITY range: red, yellow, green, not rotatable>
red

> <BIOSOLVEIT.TPSA>
75.11

> <BIOSOLVEIT.SEESAR_FAVORITE>
favorite

> <smc_score>
0.75

> <QED_score>
0.779

> <distance>
0.677

> <SimilarityPheSA_1>
0.698

> <Smiles>
O=C(Cc1cc(Cl)c(Cl)cc1F)NCCC(O)c1cncnc1

> <Similarity_SkelSpheres>
0.63

> <Cluster No>
14.0

> <QueryID>
ALP-POS-ce760d3f-2

> <SimilarityPheSA>
0.698

> <Postera series>
3-aminopyridine-like

> <PDB_code>
Mpro-x12659

> <Approach>
DGM_exploratory_RL

> <ID>
20210628_35

> <SimilarityPheSA_2>
0.745

> <OPTIBRIUM.logD>
2.90746

> <OPTIBRIUM.BBB category>
-

> <OPTIBRIUM.logP>
2.90746

> <OPTIBRIUM.P-gp category>
no

> <OPTIBRIUM.logS>
1.42056

> <OPTIBRIUM.HIA category>
+

> <OPTIBRIUM.PPB90 category>
high

> <OPTIBRIUM.2D6 affinity category>
high

> <OPTIBRIUM.hERG pIC50>
4.69025

> <OPTIBRIUM.2C9 pKi>
5.20596

> <OPTIBRIUM.BBB log([brain]:[blood])>
-0.279317

> <OPTIBRIUM.logS @ pH7.4>
1.42056

$$$$
Compound 765_1_2
haSeeSAR  07122114523D 1   1.00000     0.00000     0
SeeSAR 11.0.2 hazemaj
 37 38  0  0  0  0            999 V2000
   21.7625   -6.4298    3.4718 Cl  0  0  0  0  0  0  0  0  0  0  0  0
   21.4132   -8.1056    3.9582 C   0  0  0  0  0  0  0  0  0  0  0  0
   20.1932   -8.6847    3.6296 C   0  0  0  0  0  0  0  0  0  0  0  0
   22.3682   -8.8256    4.6682 C   0  0  0  0  0  0  0  0  0  0  0  0
   18.9857   -7.7439    2.7212 Cl  0  0  0  0  0  0  0  0  0  0  0  0
   19.9043   -9.9924    4.0037 C   0  0  0  0  0  0  0  0  0  0  0  0
   22.0810  -10.1340    5.0425 C   0  0  0  0  0  0  0  0  0  0  0  0
   20.8599  -10.7112    4.7133 C   0  0  0  0  0  0  0  0  0  0  0  0
   22.9854  -10.8332    5.7195 F   0  0  0  0  0  0  0  0  0  0  0  0
   20.5629  -12.1416    5.1319 C   0  0  0  0  0  0  0  0  0  0  0  0
   19.5322  -12.1389    6.2492 C   0  0  0  0  0  0  0  0  0  0  0  0
   19.7121  -11.4463    7.2508 O   0  0  0  0  0  0  0  0  0  0  0  0
   18.4419  -12.8809    6.1450 N   0  0  0  0  0  0  0  0  0  0  0  0
   17.4451  -12.8782    7.2254 C   0  0  0  0  0  0  0  0  0  0  0  0
   16.5008  -11.7015    7.0408 C   0  0  0  0  0  0  0  0  0  0  0  0
   15.9384  -11.7199    5.6288 C   0  0  2  0  0  0  0  0  0  0  0  0
   16.2750  -10.5082    4.9694 O   0  0  0  0  0  0  0  0  0  0  0  0
   14.4270  -11.8615    5.6876 C   0  0  0  0  0  0  0  0  0  0  0  0
   13.8242  -13.1147    5.6894 C   0  0  0  0  0  0  0  0  0  0  0  0
   13.5885  -10.7527    5.7410 C   0  0  0  0  0  0  0  0  0  0  0  0
   12.4900  -13.2396    5.7412 N   0  0  0  0  0  0  0  0  0  0  0  0
   12.2586  -10.9204    5.7917 N   0  0  0  0  0  0  0  0  0  0  0  0
   11.7151  -12.1459    5.7923 C   0  0  0  0  0  0  0  0  0  0  0  0
   23.2462   -8.4099    4.9054 H   0  0  0  0  0  0  0  0  0  0  0  0
   19.0261  -10.4081    3.7669 H   0  0  0  0  0  0  0  0  0  0  0  0
   21.4038  -12.5757    5.4552 H   0  0  0  0  0  0  0  0  0  0  0  0
   20.2046  -12.6504    4.3492 H   0  0  0  0  0  0  0  0  0  0  0  0
   18.2958  -13.4434    5.3313 H   0  0  0  0  0  0  0  0  0  0  0  0
   17.9096  -12.7977    8.1074 H   0  0  0  0  0  0  0  0  0  0  0  0
   16.9237  -13.7311    7.2000 H   0  0  0  0  0  0  0  0  0  0  0  0
   16.9993  -10.8475    7.1900 H   0  0  0  0  0  0  0  0  0  0  0  0
   15.7511  -11.7692    7.6992 H   0  0  0  0  0  0  0  0  0  0  0  0
   16.3262  -12.4921    5.1256 H   0  0  0  0  0  0  0  0  0  0  0  0
   16.5914  -10.7098    4.0425 H   0  0  0  0  0  0  0  0  0  0  0  0
   14.3944  -13.9353    5.6516 H   0  0  0  0  0  0  0  0  0  0  0  0
   13.9771   -9.8314    5.7416 H   0  0  0  0  0  0  0  0  0  0  0  0
   10.7208  -12.2457    5.8313 H   0  0  0  0  0  0  0  0  0  0  0  0
  1  2  1  0  0  0  0
  2  3  2  0  0  0  0
  2  4  1  0  0  0  0
  3  5  1  0  0  0  0
  3  6  1  0  0  0  0
  4  7  2  0  0  0  0
  6  8  2  0  0  0  0
  7  9  1  0  0  0  0
  8 10  1  0  0  0  0
 10 11  1  0  0  0  0
 11 12  2  0  0  0  0
 11 13  1  0  0  0  0
 13 14  1  0  0  0  0
 14 15  1  0  0  0  0
 15 16  1  0  0  0  0
 16 17  1  0  0  0  0
 16 18  1  0  0  0  0
 18 19  2  0  0  0  0
 18 20  1  0  0  0  0
 19 21  1  0  0  0  0
 20 22  2  0  0  0  0
 21 23  2  0  0  0  0
  7  8  1  0  0  0  0
 22 23  1  0  0  0  0
  4 24  1  0  0  0  0
  6 25  1  0  0  0  0
 10 26  1  0  0  0  0
 10 27  1  0  0  0  0
 13 28  1  0  0  0  0
 14 29  1  0  0  0  0
 14 30  1  0  0  0  0
 15 31  1  0  0  0  0
 15 32  1  0  0  0  0
 16 33  1  0  0  0  0
 17 34  1  0  0  0  0
 19 35  1  0  0  0  0
 20 36  1  0  0  0  0
 23 37  1  0  0  0  0
M  END
> <BIOSOLVEIT.HYDE_ESTIMATED_AFFINITY_LOWER_BOUNDARY [nM]>
3938579874.852139

> <BIOSOLVEIT.HYDE_ESTIMATED_AFFINITY_UPPER_BOUNDARY [nM]>
391321197293.719116

> <BIOSOLVEIT.HYDE_LIGAND_EFFICIENCY range: ++, +, 0, -, -->
--

> <BIOSOLVEIT.HYDE_LIGAND_LIPOPHILIC_EFFICIENCY range: ++, +, 0, -, -->
--

> <BIOSOLVEIT.INTER_CLASH range: red, yellow, green>
green

> <BIOSOLVEIT.INTRA_CLASH range: red, yellow, green>
green

> <BIOSOLVEIT.LOGP>
2.7049

> <BIOSOLVEIT.MOLECULAR WEIGHT>
358.199

> <BIOSOLVEIT.MOLECULE_CHECKSUM>
OS4wOTgyOzA=

> <BIOSOLVEIT.TORSION_QUALITY range: red, yellow, green, not rotatable>
yellow

> <BIOSOLVEIT.TPSA>
75.11

> <BIOSOLVEIT.SEESAR_FAVORITE>
favorite

> <smc_score>
0.75

> <QED_score>
0.779

> <distance>
0.677

> <SimilarityPheSA_1>
0.698

> <Smiles>
O=C(Cc1cc(Cl)c(Cl)cc1F)NCCC(O)c1cncnc1

> <Similarity_SkelSpheres>
0.63

> <Cluster No>
14.0

> <QueryID>
ALP-POS-ce760d3f-2

> <SimilarityPheSA>
0.698

> <Postera series>
3-aminopyridine-like

> <PDB_code>
Mpro-x12659

> <Approach>
DGM_exploratory_RL

> <ID>
20210628_35

> <SimilarityPheSA_2>
0.745

> <OPTIBRIUM.logD>
2.90746

> <OPTIBRIUM.BBB category>
-

> <OPTIBRIUM.logP>
2.90746

> <OPTIBRIUM.P-gp category>
no

> <OPTIBRIUM.logS>
1.42056

> <OPTIBRIUM.HIA category>
+

> <OPTIBRIUM.PPB90 category>
high

> <OPTIBRIUM.2D6 affinity category>
high

> <OPTIBRIUM.hERG pIC50>
4.69025

> <OPTIBRIUM.2C9 pKi>
5.20596

> <OPTIBRIUM.BBB log([brain]:[blood])>
-0.279317

> <OPTIBRIUM.logS @ pH7.4>
1.42056

$$$$
Compound 770_1_1
haSeeSAR  07122114523D 1   1.00000     0.00000     0
SeeSAR 11.0.2 hazemaj
 41 42  0  0  0  0            999 V2000
   19.4920   -6.8045    2.6640 Cl  0  0  0  0  0  0  0  0  0  0  0  0
   19.7743   -8.4764    3.2050 C   0  0  0  0  0  0  0  0  0  0  0  0
   21.0492   -8.8666    3.6013 C   0  0  0  0  0  0  0  0  0  0  0  0
   18.7207   -9.3838    3.2295 C   0  0  0  0  0  0  0  0  0  0  0  0
   22.3895   -7.6956    3.5662 Cl  0  0  0  0  0  0  0  0  0  0  0  0
   21.2917  -10.1687    4.0267 C   0  0  0  0  0  0  0  0  0  0  0  0
   18.9673  -10.6842    3.6558 C   0  0  0  0  0  0  0  0  0  0  0  0
   20.2405  -11.0798    4.0525 C   0  0  0  0  0  0  0  0  0  0  0  0
   17.8187  -11.6797    3.6840 C   0  0  0  0  0  0  0  0  0  0  0  0
   17.6302  -12.1717    5.0562 N   0  0  0  0  0  0  0  0  0  0  0  0
   16.8616  -11.4604    5.9395 C   0  0  0  0  0  0  0  0  0  0  0  0
   16.3423  -10.4356    5.5930 O   0  0  0  0  0  0  0  0  0  0  0  0
   16.6817  -11.9300    7.2492 N   0  0  0  0  0  0  0  0  0  0  0  0
   15.7164  -11.3958    8.2178 C   0  0  2  0  0  0  0  0  0  0  0  0
   17.4359  -13.0258    7.8613 C   0  0  0  0  0  0  0  0  0  0  0  0
   16.1186  -11.9706    9.5588 C   0  0  0  0  0  0  0  0  0  0  0  0
   14.3076  -11.8881    7.9331 C   0  0  0  0  0  0  0  0  0  0  0  0
   17.4543  -12.6516    9.3308 C   0  0  0  0  0  0  0  0  0  0  0  0
   14.0855  -11.9250    6.4805 N   0  0  0  0  0  0  0  0  0  0  0  0
   13.3169  -11.0145    5.9056 C   0  0  0  0  0  0  0  0  0  0  0  0
   12.7878  -10.1364    6.5871 O   0  0  0  0  0  0  0  0  0  0  0  0
   13.0873  -11.0526    4.4035 C   0  0  0  0  0  0  0  0  0  0  0  0
   17.8029   -9.1061    2.9459 H   0  0  0  0  0  0  0  0  0  0  0  0
   22.2096  -10.4463    4.3102 H   0  0  0  0  0  0  0  0  0  0  0  0
   20.4003  -12.0191    4.3561 H   0  0  0  0  0  0  0  0  0  0  0  0
   18.0289  -12.4486    3.0801 H   0  0  0  0  0  0  0  0  0  0  0  0
   16.9809  -11.2309    3.3727 H   0  0  0  0  0  0  0  0  0  0  0  0
   18.0629  -13.0257    5.3451 H   0  0  0  0  0  0  0  0  0  0  0  0
   15.7469  -10.3964    8.2359 H   0  0  0  0  0  0  0  0  0  0  0  0
   18.3637  -13.0735    7.4914 H   0  0  0  0  0  0  0  0  0  0  0  0
   16.9750  -13.9018    7.7197 H   0  0  0  0  0  0  0  0  0  0  0  0
   15.4385  -12.6335    9.8720 H   0  0  0  0  0  0  0  0  0  0  0  0
   16.2105  -11.2417   10.2372 H   0  0  0  0  0  0  0  0  0  0  0  0
   13.6462  -11.2686    8.3559 H   0  0  0  0  0  0  0  0  0  0  0  0
   14.1928  -12.8067    8.3114 H   0  0  0  0  0  0  0  0  0  0  0  0
   18.2094  -12.0263    9.5279 H   0  0  0  0  0  0  0  0  0  0  0  0
   17.5388  -13.4673    9.9031 H   0  0  0  0  0  0  0  0  0  0  0  0
   14.5154  -12.6383    5.9269 H   0  0  0  0  0  0  0  0  0  0  0  0
   12.4868  -10.2981    4.1388 H   0  0  0  0  0  0  0  0  0  0  0  0
   13.9635  -10.9630    3.9299 H   0  0  0  0  0  0  0  0  0  0  0  0
   12.6606  -11.9217    4.1534 H   0  0  0  0  0  0  0  0  0  0  0  0
  1  2  1  0  0  0  0
  2  3  2  0  0  0  0
  2  4  1  0  0  0  0
  3  5  1  0  0  0  0
  3  6  1  0  0  0  0
  4  7  2  0  0  0  0
  6  8  2  0  0  0  0
  7  9  1  0  0  0  0
  9 10  1  0  0  0  0
 10 11  1  0  0  0  0
 11 12  2  0  0  0  0
 11 13  1  0  0  0  0
 13 14  1  0  0  0  0
 13 15  1  0  0  0  0
 14 16  1  0  0  0  0
 14 17  1  0  0  0  0
 15 18  1  0  0  0  0
 17 19  1  0  0  0  0
 19 20  1  0  0  0  0
 20 21  2  0  0  0  0
 20 22  1  0  0  0  0
  7  8  1  0  0  0  0
 16 18  1  0  0  0  0
  4 23  1  0  0  0  0
  6 24  1  0  0  0  0
  8 25  1  0  0  0  0
  9 26  1  0  0  0  0
  9 27  1  0  0  0  0
 10 28  1  0  0  0  0
 14 29  1  0  0  0  0
 15 30  1  0  0  0  0
 15 31  1  0  0  0  0
 16 32  1  0  0  0  0
 16 33  1  0  0  0  0
 17 34  1  0  0  0  0
 17 35  1  0  0  0  0
 18 36  1  0  0  0  0
 18 37  1  0  0  0  0
 19 38  1  0  0  0  0
 22 39  1  0  0  0  0
 22 40  1  0  0  0  0
 22 41  1  0  0  0  0
M  END
> <BIOSOLVEIT.HYDE_ESTIMATED_AFFINITY_LOWER_BOUNDARY [nM]>
34217154.220682

> <BIOSOLVEIT.HYDE_ESTIMATED_AFFINITY_UPPER_BOUNDARY [nM]>
3399676579.651427

> <BIOSOLVEIT.HYDE_LIGAND_EFFICIENCY range: ++, +, 0, -, -->
--

> <BIOSOLVEIT.HYDE_LIGAND_LIPOPHILIC_EFFICIENCY range: ++, +, 0, -, -->
--

> <BIOSOLVEIT.INTER_CLASH range: red, yellow, green>
green

> <BIOSOLVEIT.INTRA_CLASH range: red, yellow, green>
yellow

> <BIOSOLVEIT.LOGP>
2.8035

> <BIOSOLVEIT.MOLECULAR WEIGHT>
344.24

> <BIOSOLVEIT.MOLECULE_CHECKSUM>
LTIuNjY2NTU7MC4xMjEyMDc=

> <BIOSOLVEIT.TORSION_QUALITY range: red, yellow, green, not rotatable>
green

> <BIOSOLVEIT.TPSA>
61.44

> <BIOSOLVEIT.SEESAR_FAVORITE>
favorite

> <smc_score>
0.563

> <QED_score>
0.882

> <distance>
0.7

> <SimilarityPheSA_1>
0.666

> <Smiles>
CC(=O)NCC1CCCN1C(=O)NCc1ccc(Cl)c(Cl)c1

> <Similarity_SkelSpheres>
0.628

> <Cluster No>
16.0

> <QueryID>
MAT-POS-f7918075-5

> <SimilarityPheSA>
0.6659

> <Postera series>
3-aminopyridine-like

> <PDB_code>
Mpro-x11499

> <Approach>
DGM_exploratory_RL

> <ID>
20210628_40

> <SimilarityPheSA_2>
0.676

> <OPTIBRIUM.logD>
2.59165

> <OPTIBRIUM.BBB category>
-

> <OPTIBRIUM.logP>
2.59165

> <OPTIBRIUM.P-gp category>
no

> <OPTIBRIUM.logS>
2.23629

> <OPTIBRIUM.HIA category>
+

> <OPTIBRIUM.PPB90 category>
low

> <OPTIBRIUM.2D6 affinity category>
high

> <OPTIBRIUM.hERG pIC50>
4.14776

> <OPTIBRIUM.2C9 pKi>
4.70589

> <OPTIBRIUM.BBB log([brain]:[blood])>
-0.342937

> <OPTIBRIUM.logS @ pH7.4>
2.23629

$$$$
Compound 745_1_1
haSeeSAR  07122114523D 1   1.00000     0.00000     0
SeeSAR 11.0.2 hazemaj
 46 47  0  0  0  0            999 V2000
   22.1956   -6.8041    3.6885 Cl  0  0  0  0  0  0  0  0  0  0  0  0
   21.2686   -8.3040    3.9312 C   0  0  0  0  0  0  0  0  0  0  0  0
   19.9855   -8.4192    3.4081 C   0  0  0  0  0  0  0  0  0  0  0  0
   21.8364   -9.3544    4.6445 C   0  0  0  0  0  0  0  0  0  0  0  0
   19.2772   -7.0631    2.4982 Cl  0  0  0  0  0  0  0  0  0  0  0  0
   19.2492   -9.5852    3.5892 C   0  0  0  0  0  0  0  0  0  0  0  0
   21.1019  -10.5213    4.8269 C   0  0  0  0  0  0  0  0  0  0  0  0
   19.8188  -10.6347    4.3026 C   0  0  0  0  0  0  0  0  0  0  0  0
   21.6512  -11.5414    5.5196 O   0  0  0  0  0  0  0  0  0  0  0  0
   19.0171  -11.9108    4.5017 C   0  0  0  0  0  0  0  0  0  0  0  0
   22.9179  -11.3773    6.1402 C   0  0  0  0  0  0  0  0  0  0  0  0
   17.8335  -11.8869    3.6302 N   0  0  0  0  0  0  0  0  0  0  0  0
   16.6709  -11.4706    4.1047 C   0  0  0  0  0  0  0  0  0  0  0  0
   17.9419  -12.3258    2.2314 C   0  0  0  0  0  0  0  0  0  0  0  0
   16.5189  -10.2878    4.4103 O   0  0  0  0  0  0  0  0  0  0  0  0
   15.5246  -12.4511    4.2722 C   0  0  2  0  0  0  0  0  0  0  0  0
   17.1592  -11.3753    1.3401 C   0  0  0  0  0  0  0  0  0  0  0  0
   14.2307  -11.7590    4.6589 C   0  0  0  0  0  0  0  0  0  0  0  0
   15.7326  -13.3745    5.4555 C   0  0  0  0  0  0  0  0  0  0  0  0
   14.2110  -11.7401    6.1265 N   0  0  0  0  0  0  0  0  0  0  0  0
   15.3706  -12.4851    6.6264 C   0  0  0  0  0  0  0  0  0  0  0  0
   13.2462  -11.1168    6.9283 C   0  0  0  0  0  0  0  0  0  0  0  0
   12.3770  -10.4147    6.4119 O   0  0  0  0  0  0  0  0  0  0  0  0
   13.2727  -11.3075    8.4360 C   0  0  0  0  0  0  0  0  0  0  0  0
   22.7592   -9.2718    5.0208 H   0  0  0  0  0  0  0  0  0  0  0  0
   18.3263   -9.6675    3.2131 H   0  0  0  0  0  0  0  0  0  0  0  0
   18.7268  -11.9765    5.4564 H   0  0  0  0  0  0  0  0  0  0  0  0
   19.5852  -12.7007    4.2709 H   0  0  0  0  0  0  0  0  0  0  0  0
   23.1728  -12.2243    6.6067 H   0  0  0  0  0  0  0  0  0  0  0  0
   23.6036  -11.1598    5.4457 H   0  0  0  0  0  0  0  0  0  0  0  0
   22.8692  -10.6321    6.8054 H   0  0  0  0  0  0  0  0  0  0  0  0
   17.5692  -13.2495    2.1421 H   0  0  0  0  0  0  0  0  0  0  0  0
   18.9031  -12.3260    1.9556 H   0  0  0  0  0  0  0  0  0  0  0  0
   15.3973  -12.9828    3.4348 H   0  0  0  0  0  0  0  0  0  0  0  0
   17.2329  -11.6738    0.3886 H   0  0  0  0  0  0  0  0  0  0  0  0
   16.1980  -11.3751    1.6159 H   0  0  0  0  0  0  0  0  0  0  0  0
   17.5319  -10.4517    1.4295 H   0  0  0  0  0  0  0  0  0  0  0  0
   13.4449  -12.2674    4.3066 H   0  0  0  0  0  0  0  0  0  0  0  0
   14.2132  -10.8264    4.2983 H   0  0  0  0  0  0  0  0  0  0  0  0
   16.6829  -13.6807    5.5134 H   0  0  0  0  0  0  0  0  0  0  0  0
   15.1287  -14.1700    5.4047 H   0  0  0  0  0  0  0  0  0  0  0  0
   16.1233  -11.8677    6.8552 H   0  0  0  0  0  0  0  0  0  0  0  0
   15.1295  -13.0290    7.4301 H   0  0  0  0  0  0  0  0  0  0  0  0
   12.5192  -10.7966    8.8499 H   0  0  0  0  0  0  0  0  0  0  0  0
   13.1743  -12.2792    8.6510 H   0  0  0  0  0  0  0  0  0  0  0  0
   14.1420  -10.9722    8.7992 H   0  0  0  0  0  0  0  0  0  0  0  0
  1  2  1  0  0  0  0
  2  3  2  0  0  0  0
  2  4  1  0  0  0  0
  3  5  1  0  0  0  0
  3  6  1  0  0  0  0
  4  7  2  0  0  0  0
  6  8  2  0  0  0  0
  7  9  1  0  0  0  0
  8 10  1  0  0  0  0
  9 11  1  0  0  0  0
 10 12  1  0  0  0  0
 12 13  1  0  0  0  0
 12 14  1  0  0  0  0
 13 15  2  0  0  0  0
 13 16  1  0  0  0  0
 14 17  1  0  0  0  0
 16 18  1  0  0  0  0
 16 19  1  0  0  0  0
 18 20  1  0  0  0  0
 19 21  1  0  0  0  0
 20 22  1  0  0  0  0
 22 23  2  0  0  0  0
 22 24  1  0  0  0  0
  7  8  1  0  0  0  0
 20 21  1  0  0  0  0
  4 25  1  0  0  0  0
  6 26  1  0  0  0  0
 10 27  1  0  0  0  0
 10 28  1  0  0  0  0
 11 29  1  0  0  0  0
 11 30  1  0  0  0  0
 11 31  1  0  0  0  0
 14 32  1  0  0  0  0
 14 33  1  0  0  0  0
 16 34  1  0  0  0  0
 17 35  1  0  0  0  0
 17 36  1  0  0  0  0
 17 37  1  0  0  0  0
 18 38  1  0  0  0  0
 18 39  1  0  0  0  0
 19 40  1  0  0  0  0
 19 41  1  0  0  0  0
 21 42  1  0  0  0  0
 21 43  1  0  0  0  0
 24 44  1  0  0  0  0
 24 45  1  0  0  0  0
 24 46  1  0  0  0  0
M  END
> <BIOSOLVEIT.HYDE_ESTIMATED_AFFINITY_LOWER_BOUNDARY [nM]>
13561048.615533

> <BIOSOLVEIT.HYDE_ESTIMATED_AFFINITY_UPPER_BOUNDARY [nM]>
1347370359.218106

> <BIOSOLVEIT.HYDE_LIGAND_EFFICIENCY range: ++, +, 0, -, -->
--

> <BIOSOLVEIT.HYDE_LIGAND_LIPOPHILIC_EFFICIENCY range: ++, +, 0, -, -->
--

> <BIOSOLVEIT.INTER_CLASH range: red, yellow, green>
green

> <BIOSOLVEIT.INTRA_CLASH range: red, yellow, green>
green

> <BIOSOLVEIT.LOGP>
3.2189

> <BIOSOLVEIT.MOLECULAR WEIGHT>
373.278

> <BIOSOLVEIT.MOLECULE_CHECKSUM>
LTQuOTYwODk7MC4yMDY3MDQ=

> <BIOSOLVEIT.TORSION_QUALITY range: red, yellow, green, not rotatable>
red

> <BIOSOLVEIT.TPSA>
49.85

> <BIOSOLVEIT.SEESAR_FAVORITE>
favorite

> <smc_score>
0.875

> <QED_score>
0.797

> <distance>
0.759

> <SimilarityPheSA_1>
0.659

> <Smiles>
CCN(Cc1cc(Cl)c(Cl)cc1OC)C(=O)C1CCN(C(C)=O)C1

> <Similarity_SkelSpheres>
0.588

> <Cluster No>
6.0

> <QueryID>
JAN-GHE-5a013bed-2

> <SimilarityPheSA>
0.6591

> <Postera series>
3-aminopyridine-like

> <PDB_code>
Mpro-x10466

> <Approach>
DGM_exploratory_RL

> <ID>
20210628_15

> <SimilarityPheSA_2>
0.696

> <OPTIBRIUM.logD>
2.10767

> <OPTIBRIUM.BBB category>
-

> <OPTIBRIUM.logP>
2.10767

> <OPTIBRIUM.P-gp category>
yes

> <OPTIBRIUM.logS>
3.51571

> <OPTIBRIUM.HIA category>
+

> <OPTIBRIUM.PPB90 category>
low

> <OPTIBRIUM.2D6 affinity category>
medium

> <OPTIBRIUM.hERG pIC50>
4.86346

> <OPTIBRIUM.2C9 pKi>
4.73606

> <OPTIBRIUM.BBB log([brain]:[blood])>
-0.527962

> <OPTIBRIUM.logS @ pH7.4>
3.51571

$$$$
Compound 745_1_2
haSeeSAR  07122114523D 1   1.00000     0.00000     0
SeeSAR 11.0.2 hazemaj
 46 47  0  0  0  0            999 V2000
   21.9919   -8.0505    4.1947 Cl  0  0  0  0  0  0  0  0  0  0  0  0
   20.8144   -9.3514    3.8968 C   0  0  0  0  0  0  0  0  0  0  0  0
   19.6093   -9.0655    3.2646 C   0  0  0  0  0  0  0  0  0  0  0  0
   21.1088  -10.6498    4.2993 C   0  0  0  0  0  0  0  0  0  0  0  0
   19.2518   -7.3972    2.7575 Cl  0  0  0  0  0  0  0  0  0  0  0  0
   18.6795  -10.0716    3.0247 C   0  0  0  0  0  0  0  0  0  0  0  0
   20.1804  -11.6576    4.0605 C   0  0  0  0  0  0  0  0  0  0  0  0
   18.9759  -11.3695    3.4277 C   0  0  0  0  0  0  0  0  0  0  0  0
   20.4644  -12.9180    4.4512 O   0  0  0  0  0  0  0  0  0  0  0  0
   17.9623  -12.4717    3.1662 C   0  0  0  0  0  0  0  0  0  0  0  0
   20.9540  -13.1618    5.7616 C   0  0  0  0  0  0  0  0  0  0  0  0
   16.6850  -11.8743    2.7510 N   0  0  0  0  0  0  0  0  0  0  0  0
   15.8159  -11.4707    3.6631 C   0  0  0  0  0  0  0  0  0  0  0  0
   16.3733  -11.7255    1.3221 C   0  0  0  0  0  0  0  0  0  0  0  0
   16.0240  -10.4356    4.2961 O   0  0  0  0  0  0  0  0  0  0  0  0
   14.5622  -12.2837    3.9292 C   0  0  2  0  0  0  0  0  0  0  0  0
   15.7866  -13.0241    0.7935 C   0  0  0  0  0  0  0  0  0  0  0  0
   13.5059  -11.4826    4.6677 C   0  0  0  0  0  0  0  0  0  0  0  0
   14.8130  -13.4153    4.9053 C   0  0  0  0  0  0  0  0  0  0  0  0
   13.7575  -11.7105    6.0957 N   0  0  0  0  0  0  0  0  0  0  0  0
   14.8360  -12.6938    6.2365 C   0  0  0  0  0  0  0  0  0  0  0  0
   13.0827  -11.0961    7.1582 C   0  0  0  0  0  0  0  0  0  0  0  0
   12.2034  -10.2652    6.9308 O   0  0  0  0  0  0  0  0  0  0  0  0
   13.4362  -11.4553    8.5923 C   0  0  0  0  0  0  0  0  0  0  0  0
   21.9754  -10.8559    4.7539 H   0  0  0  0  0  0  0  0  0  0  0  0
   17.8129   -9.8655    2.5703 H   0  0  0  0  0  0  0  0  0  0  0  0
   17.8254  -13.0037    4.0019 H   0  0  0  0  0  0  0  0  0  0  0  0
   18.3012  -13.0712    2.4413 H   0  0  0  0  0  0  0  0  0  0  0  0
   21.1104  -14.1421    5.8820 H   0  0  0  0  0  0  0  0  0  0  0  0
   21.8138  -12.6684    5.8933 H   0  0  0  0  0  0  0  0  0  0  0  0
   20.2827  -12.8464    6.4323 H   0  0  0  0  0  0  0  0  0  0  0  0
   17.2101  -11.5086    0.8193 H   0  0  0  0  0  0  0  0  0  0  0  0
   15.7105  -10.9865    1.2008 H   0  0  0  0  0  0  0  0  0  0  0  0
   14.1911  -12.6404    3.0718 H   0  0  0  0  0  0  0  0  0  0  0  0
   15.5746  -12.9230   -0.1785 H   0  0  0  0  0  0  0  0  0  0  0  0
   16.4494  -13.7631    0.9149 H   0  0  0  0  0  0  0  0  0  0  0  0
   14.9499  -13.2410    1.2964 H   0  0  0  0  0  0  0  0  0  0  0  0
   12.5909  -11.8010    4.4201 H   0  0  0  0  0  0  0  0  0  0  0  0
   13.5907  -10.5103    4.4499 H   0  0  0  0  0  0  0  0  0  0  0  0
   15.6874  -13.8647    4.7218 H   0  0  0  0  0  0  0  0  0  0  0  0
   14.0773  -14.0916    4.8725 H   0  0  0  0  0  0  0  0  0  0  0  0
   15.7161  -12.2434    6.3863 H   0  0  0  0  0  0  0  0  0  0  0  0
   14.6516  -13.3243    6.9904 H   0  0  0  0  0  0  0  0  0  0  0  0
   12.8627  -10.9279    9.2191 H   0  0  0  0  0  0  0  0  0  0  0  0
   13.2800  -12.4320    8.7395 H   0  0  0  0  0  0  0  0  0  0  0  0
   14.3985  -11.2423    8.7618 H   0  0  0  0  0  0  0  0  0  0  0  0
  1  2  1  0  0  0  0
  2  3  2  0  0  0  0
  2  4  1  0  0  0  0
  3  5  1  0  0  0  0
  3  6  1  0  0  0  0
  4  7  2  0  0  0  0
  6  8  2  0  0  0  0
  7  9  1  0  0  0  0
  8 10  1  0  0  0  0
  9 11  1  0  0  0  0
 10 12  1  0  0  0  0
 12 13  1  0  0  0  0
 12 14  1  0  0  0  0
 13 15  2  0  0  0  0
 13 16  1  0  0  0  0
 14 17  1  0  0  0  0
 16 18  1  0  0  0  0
 16 19  1  0  0  0  0
 18 20  1  0  0  0  0
 19 21  1  0  0  0  0
 20 22  1  0  0  0  0
 22 23  2  0  0  0  0
 22 24  1  0  0  0  0
  7  8  1  0  0  0  0
 20 21  1  0  0  0  0
  4 25  1  0  0  0  0
  6 26  1  0  0  0  0
 10 27  1  0  0  0  0
 10 28  1  0  0  0  0
 11 29  1  0  0  0  0
 11 30  1  0  0  0  0
 11 31  1  0  0  0  0
 14 32  1  0  0  0  0
 14 33  1  0  0  0  0
 16 34  1  0  0  0  0
 17 35  1  0  0  0  0
 17 36  1  0  0  0  0
 17 37  1  0  0  0  0
 18 38  1  0  0  0  0
 18 39  1  0  0  0  0
 19 40  1  0  0  0  0
 19 41  1  0  0  0  0
 21 42  1  0  0  0  0
 21 43  1  0  0  0  0
 24 44  1  0  0  0  0
 24 45  1  0  0  0  0
 24 46  1  0  0  0  0
M  END
> <BIOSOLVEIT.HYDE_ESTIMATED_AFFINITY_LOWER_BOUNDARY [nM]>
2587880.856204

> <BIOSOLVEIT.HYDE_ESTIMATED_AFFINITY_UPPER_BOUNDARY [nM]>
257121263.826382

> <BIOSOLVEIT.HYDE_LIGAND_EFFICIENCY range: ++, +, 0, -, -->
--

> <BIOSOLVEIT.HYDE_LIGAND_LIPOPHILIC_EFFICIENCY range: ++, +, 0, -, -->
--

> <BIOSOLVEIT.INTER_CLASH range: red, yellow, green>
green

> <BIOSOLVEIT.INTRA_CLASH range: red, yellow, green>
green

> <BIOSOLVEIT.LOGP>
3.2189

> <BIOSOLVEIT.MOLECULAR WEIGHT>
373.278

> <BIOSOLVEIT.MOLECULE_CHECKSUM>
LTkuMDY2OTQ7MC4zNzc3ODk=

> <BIOSOLVEIT.TORSION_QUALITY range: red, yellow, green, not rotatable>
red

> <BIOSOLVEIT.TPSA>
49.85

> <BIOSOLVEIT.SEESAR_FAVORITE>
favorite

> <smc_score>
0.875

> <QED_score>
0.797

> <distance>
0.759

> <SimilarityPheSA_1>
0.659

> <Smiles>
CCN(Cc1cc(Cl)c(Cl)cc1OC)C(=O)C1CCN(C(C)=O)C1

> <Similarity_SkelSpheres>
0.588

> <Cluster No>
6.0

> <QueryID>
JAN-GHE-5a013bed-2

> <SimilarityPheSA>
0.6591

> <Postera series>
3-aminopyridine-like

> <PDB_code>
Mpro-x10466

> <Approach>
DGM_exploratory_RL

> <ID>
20210628_15

> <SimilarityPheSA_2>
0.696

> <OPTIBRIUM.logD>
2.10767

> <OPTIBRIUM.BBB category>
-

> <OPTIBRIUM.logP>
2.10767

> <OPTIBRIUM.P-gp category>
yes

> <OPTIBRIUM.logS>
3.51571

> <OPTIBRIUM.HIA category>
+

> <OPTIBRIUM.PPB90 category>
low

> <OPTIBRIUM.2D6 affinity category>
medium

> <OPTIBRIUM.hERG pIC50>
4.86346

> <OPTIBRIUM.2C9 pKi>
4.73606

> <OPTIBRIUM.BBB log([brain]:[blood])>
-0.527962

> <OPTIBRIUM.logS @ pH7.4>
3.51571

$$$$
Compound 745_1_3
haSeeSAR  07122114523D 1   1.00000     0.00000     0
SeeSAR 11.0.2 hazemaj
 46 47  0  0  0  0            999 V2000
   22.0345   -6.1360    3.5764 Cl  0  0  0  0  0  0  0  0  0  0  0  0
   21.2982   -7.7451    3.7667 C   0  0  0  0  0  0  0  0  0  0  0  0
   20.0427   -8.0022    3.2271 C   0  0  0  0  0  0  0  0  0  0  0  0
   21.9863   -8.7381    4.4559 C   0  0  0  0  0  0  0  0  0  0  0  0
   19.1788   -6.7175    2.3487 Cl  0  0  0  0  0  0  0  0  0  0  0  0
   19.4548   -9.2548    3.3674 C   0  0  0  0  0  0  0  0  0  0  0  0
   21.4002   -9.9915    4.5975 C   0  0  0  0  0  0  0  0  0  0  0  0
   20.1446  -10.2466    4.0567 C   0  0  0  0  0  0  0  0  0  0  0  0
   22.0665  -10.9560    5.2668 O   0  0  0  0  0  0  0  0  0  0  0  0
   19.5054  -11.6171    4.2112 C   0  0  0  0  0  0  0  0  0  0  0  0
   23.3236  -10.6687    5.8615 C   0  0  0  0  0  0  0  0  0  0  0  0
   18.2416  -11.6556    3.4612 N   0  0  0  0  0  0  0  0  0  0  0  0
   17.1144  -11.2827    4.0448 C   0  0  0  0  0  0  0  0  0  0  0  0
   18.2304  -12.1085    2.0628 C   0  0  0  0  0  0  0  0  0  0  0  0
   16.8745  -10.0870    4.2128 O   0  0  0  0  0  0  0  0  0  0  0  0
   16.1169  -12.3290    4.5072 C   0  0  2  0  0  0  0  0  0  0  0  0
   17.1326  -11.3814    1.3035 C   0  0  0  0  0  0  0  0  0  0  0  0
   14.7018  -11.8337    4.2626 C   0  0  0  0  0  0  0  0  0  0  0  0
   16.2126  -12.5386    6.0051 C   0  0  0  0  0  0  0  0  0  0  0  0
   14.0798  -11.7151    5.5821 N   0  0  0  0  0  0  0  0  0  0  0  0
   15.1587  -11.6092    6.5630 C   0  0  0  0  0  0  0  0  0  0  0  0
   12.7065  -11.7116    5.8604 C   0  0  0  0  0  0  0  0  0  0  0  0
   12.1421  -10.6597    6.1607 O   0  0  0  0  0  0  0  0  0  0  0  0
   11.9138  -13.0067    5.7916 C   0  0  0  0  0  0  0  0  0  0  0  0
   22.8893   -8.5536    4.8441 H   0  0  0  0  0  0  0  0  0  0  0  0
   18.5518   -9.4392    2.9795 H   0  0  0  0  0  0  0  0  0  0  0  0
   19.3241  -11.7932    5.1788 H   0  0  0  0  0  0  0  0  0  0  0  0
   20.1255  -12.3163    3.8556 H   0  0  0  0  0  0  0  0  0  0  0  0
   23.6741  -11.4892    6.3127 H   0  0  0  0  0  0  0  0  0  0  0  0
   23.9676  -10.3760    5.1546 H   0  0  0  0  0  0  0  0  0  0  0  0
   23.2142   -9.9382    6.5356 H   0  0  0  0  0  0  0  0  0  0  0  0
   18.0603  -13.0936    2.0327 H   0  0  0  0  0  0  0  0  0  0  0  0
   19.1151  -11.9100    1.6411 H   0  0  0  0  0  0  0  0  0  0  0  0
   16.2707  -13.1917    4.0255 H   0  0  0  0  0  0  0  0  0  0  0  0
   17.1249  -11.6895    0.3523 H   0  0  0  0  0  0  0  0  0  0  0  0
   16.2478  -11.5800    1.7253 H   0  0  0  0  0  0  0  0  0  0  0  0
   17.3026  -10.3965    1.3336 H   0  0  0  0  0  0  0  0  0  0  0  0
   14.1978  -12.4880    3.6988 H   0  0  0  0  0  0  0  0  0  0  0  0
   14.7195  -10.9443    3.8059 H   0  0  0  0  0  0  0  0  0  0  0  0
   17.1209  -12.2919    6.3426 H   0  0  0  0  0  0  0  0  0  0  0  0
   16.0142  -13.4887    6.2458 H   0  0  0  0  0  0  0  0  0  0  0  0
   15.5006  -10.6713    6.6222 H   0  0  0  0  0  0  0  0  0  0  0  0
   14.8546  -11.9108    7.4666 H   0  0  0  0  0  0  0  0  0  0  0  0
   10.9568  -12.8241    6.0173 H   0  0  0  0  0  0  0  0  0  0  0  0
   11.9719  -13.3844    4.8675 H   0  0  0  0  0  0  0  0  0  0  0  0
   12.2909  -13.6635    6.4445 H   0  0  0  0  0  0  0  0  0  0  0  0
  1  2  1  0  0  0  0
  2  3  2  0  0  0  0
  2  4  1  0  0  0  0
  3  5  1  0  0  0  0
  3  6  1  0  0  0  0
  4  7  2  0  0  0  0
  6  8  2  0  0  0  0
  7  9  1  0  0  0  0
  8 10  1  0  0  0  0
  9 11  1  0  0  0  0
 10 12  1  0  0  0  0
 12 13  1  0  0  0  0
 12 14  1  0  0  0  0
 13 15  2  0  0  0  0
 13 16  1  0  0  0  0
 14 17  1  0  0  0  0
 16 18  1  0  0  0  0
 16 19  1  0  0  0  0
 18 20  1  0  0  0  0
 19 21  1  0  0  0  0
 20 22  1  0  0  0  0
 22 23  2  0  0  0  0
 22 24  1  0  0  0  0
  7  8  1  0  0  0  0
 20 21  1  0  0  0  0
  4 25  1  0  0  0  0
  6 26  1  0  0  0  0
 10 27  1  0  0  0  0
 10 28  1  0  0  0  0
 11 29  1  0  0  0  0
 11 30  1  0  0  0  0
 11 31  1  0  0  0  0
 14 32  1  0  0  0  0
 14 33  1  0  0  0  0
 16 34  1  0  0  0  0
 17 35  1  0  0  0  0
 17 36  1  0  0  0  0
 17 37  1  0  0  0  0
 18 38  1  0  0  0  0
 18 39  1  0  0  0  0
 19 40  1  0  0  0  0
 19 41  1  0  0  0  0
 21 42  1  0  0  0  0
 21 43  1  0  0  0  0
 24 44  1  0  0  0  0
 24 45  1  0  0  0  0
 24 46  1  0  0  0  0
M  END
> <BIOSOLVEIT.HYDE_ESTIMATED_AFFINITY_LOWER_BOUNDARY [nM]>
30987016.457964

> <BIOSOLVEIT.HYDE_ESTIMATED_AFFINITY_UPPER_BOUNDARY [nM]>
3078743294.839423

> <BIOSOLVEIT.HYDE_LIGAND_EFFICIENCY range: ++, +, 0, -, -->
--

> <BIOSOLVEIT.HYDE_LIGAND_LIPOPHILIC_EFFICIENCY range: ++, +, 0, -, -->
--

> <BIOSOLVEIT.INTER_CLASH range: red, yellow, green>
green

> <BIOSOLVEIT.INTRA_CLASH range: red, yellow, green>
yellow

> <BIOSOLVEIT.LOGP>
3.2189

> <BIOSOLVEIT.MOLECULAR WEIGHT>
373.278

> <BIOSOLVEIT.MOLECULE_CHECKSUM>
LTIuOTEyMzY7MC4xMjEzNDg=

> <BIOSOLVEIT.TORSION_QUALITY range: red, yellow, green, not rotatable>
red

> <BIOSOLVEIT.TPSA>
49.85

> <BIOSOLVEIT.SEESAR_FAVORITE>
favorite

> <smc_score>
0.875

> <QED_score>
0.797

> <distance>
0.759

> <SimilarityPheSA_1>
0.659

> <Smiles>
CCN(Cc1cc(Cl)c(Cl)cc1OC)C(=O)C1CCN(C(C)=O)C1

> <Similarity_SkelSpheres>
0.588

> <Cluster No>
6.0

> <QueryID>
JAN-GHE-5a013bed-2

> <SimilarityPheSA>
0.6591

> <Postera series>
3-aminopyridine-like

> <PDB_code>
Mpro-x10466

> <Approach>
DGM_exploratory_RL

> <ID>
20210628_15

> <SimilarityPheSA_2>
0.696

> <OPTIBRIUM.logD>
2.10767

> <OPTIBRIUM.BBB category>
-

> <OPTIBRIUM.logP>
2.10767

> <OPTIBRIUM.P-gp category>
yes

> <OPTIBRIUM.logS>
3.51571

> <OPTIBRIUM.HIA category>
+

> <OPTIBRIUM.PPB90 category>
low

> <OPTIBRIUM.2D6 affinity category>
medium

> <OPTIBRIUM.hERG pIC50>
4.86346

> <OPTIBRIUM.2C9 pKi>
4.73606

> <OPTIBRIUM.BBB log([brain]:[blood])>
-0.527962

> <OPTIBRIUM.logS @ pH7.4>
3.51571

$$$$
Compound 808_1_02
haSeeSAR  07122114523D 1   1.00000     0.00000     0
SeeSAR 11.0.2 hazemaj
 45 46  0  0  0  0            999 V2000
   20.6467   -6.1198    3.3106 Cl  0  0  0  0  0  0  0  0  0  0  0  0
   20.5691   -7.8971    3.3614 C   0  0  0  0  0  0  0  0  0  0  0  0
   21.6921   -8.6255    3.7399 C   0  0  0  0  0  0  0  0  0  0  0  0
   19.3880   -8.5489    3.0239 C   0  0  0  0  0  0  0  0  0  0  0  0
   23.1980   -7.7793    4.1705 Cl  0  0  0  0  0  0  0  0  0  0  0  0
   21.6533  -10.0152    3.7855 C   0  0  0  0  0  0  0  0  0  0  0  0
   19.3533   -9.9383    3.0713 C   0  0  0  0  0  0  0  0  0  0  0  0
   20.4736  -10.6714    3.4482 C   0  0  0  0  0  0  0  0  0  0  0  0
   18.0642  -10.6552    2.7027 C   0  0  0  0  0  0  0  0  0  0  0  0
   17.3177  -11.0391    3.9699 C   0  0  0  0  0  0  0  0  0  0  0  0
   16.6165  -10.2079    4.5469 O   0  0  0  0  0  0  0  0  0  0  0  0
   17.4216  -12.2663    4.4529 N   0  0  0  0  0  0  0  0  0  0  0  0
   16.6997  -12.6375    5.6783 C   0  0  0  0  0  0  0  0  0  0  0  0
   15.4899  -13.4838    5.3171 C   0  0  0  0  0  0  0  0  0  0  0  0
   14.2933  -12.9375    5.9791 N   0  3  0  0  0  0  0  0  0  0  0  0
   15.2891  -13.4636    3.8105 C   0  0  0  0  0  0  0  0  0  0  0  0
   15.7158  -14.9142    5.7790 C   0  0  0  0  0  0  0  0  0  0  0  0
   13.1120  -13.0546    5.1106 C   0  0  0  0  0  0  0  0  0  0  0  0
   14.5232  -11.5522    6.4339 C   0  0  0  0  0  0  0  0  0  0  0  0
   11.9062  -12.3685    5.7377 C   0  0  0  0  0  0  0  0  0  0  0  0
   13.4792  -10.5699    5.9218 C   0  0  0  0  0  0  0  0  0  0  0  0
   12.1665  -11.0484    6.2059 O   0  0  0  0  0  0  0  0  0  0  0  0
   18.5787   -8.0281    2.7522 H   0  0  0  0  0  0  0  0  0  0  0  0
   22.4626  -10.5359    4.0572 H   0  0  0  0  0  0  0  0  0  0  0  0
   20.4312  -11.6701    3.4767 H   0  0  0  0  0  0  0  0  0  0  0  0
   18.2793  -11.4799    2.1797 H   0  0  0  0  0  0  0  0  0  0  0  0
   17.4923  -10.0494    2.1495 H   0  0  0  0  0  0  0  0  0  0  0  0
   17.9913  -12.9415    3.9841 H   0  0  0  0  0  0  0  0  0  0  0  0
   16.3982  -11.8097    6.1513 H   0  0  0  0  0  0  0  0  0  0  0  0
   17.3061  -13.1612    6.2767 H   0  0  0  0  0  0  0  0  0  0  0  0
   14.4932  -14.0203    3.5728 H   0  0  0  0  0  0  0  0  0  0  0  0
   15.1404  -12.5225    3.5067 H   0  0  0  0  0  0  0  0  0  0  0  0
   16.1016  -13.8346    3.3610 H   0  0  0  0  0  0  0  0  0  0  0  0
   14.9199  -15.4709    5.5413 H   0  0  0  0  0  0  0  0  0  0  0  0
   16.5284  -15.2852    5.3294 H   0  0  0  0  0  0  0  0  0  0  0  0
   15.8479  -14.9275    6.7701 H   0  0  0  0  0  0  0  0  0  0  0  0
   12.9024  -14.0225    4.9719 H   0  0  0  0  0  0  0  0  0  0  0  0
   13.3102  -12.6268    4.2287 H   0  0  0  0  0  0  0  0  0  0  0  0
   15.4224  -11.2570    6.1109 H   0  0  0  0  0  0  0  0  0  0  0  0
   14.5075  -11.5395    7.4337 H   0  0  0  0  0  0  0  0  0  0  0  0
   11.5978  -12.9211    6.5119 H   0  0  0  0  0  0  0  0  0  0  0  0
   11.1800  -12.3209    5.0519 H   0  0  0  0  0  0  0  0  0  0  0  0
   13.5843  -10.4629    4.9331 H   0  0  0  0  0  0  0  0  0  0  0  0
   13.6116   -9.6853    6.3689 H   0  0  0  0  0  0  0  0  0  0  0  0
   14.1221  -13.4938    6.7922 H   0  0  0  0  0  0  0  0  0  0  0  0
  1  2  1  0  0  0  0
  2  3  2  0  0  0  0
  2  4  1  0  0  0  0
  3  5  1  0  0  0  0
  3  6  1  0  0  0  0
  4  7  2  0  0  0  0
  6  8  2  0  0  0  0
  7  9  1  0  0  0  0
  9 10  1  0  0  0  0
 10 11  2  0  0  0  0
 10 12  1  0  0  0  0
 12 13  1  0  0  0  0
 13 14  1  0  0  0  0
 14 15  1  0  0  0  0
 14 16  1  0  0  0  0
 14 17  1  0  0  0  0
 15 18  1  0  0  0  0
 15 19  1  0  0  0  0
 18 20  1  0  0  0  0
 19 21  1  0  0  0  0
 20 22  1  0  0  0  0
  7  8  1  0  0  0  0
 21 22  1  0  0  0  0
  4 23  1  0  0  0  0
  6 24  1  0  0  0  0
  8 25  1  0  0  0  0
  9 26  1  0  0  0  0
  9 27  1  0  0  0  0
 12 28  1  0  0  0  0
 13 29  1  0  0  0  0
 13 30  1  0  0  0  0
 16 31  1  0  0  0  0
 16 32  1  0  0  0  0
 16 33  1  0  0  0  0
 17 34  1  0  0  0  0
 17 35  1  0  0  0  0
 17 36  1  0  0  0  0
 18 37  1  0  0  0  0
 18 38  1  0  0  0  0
 19 39  1  0  0  0  0
 19 40  1  0  0  0  0
 20 41  1  0  0  0  0
 20 42  1  0  0  0  0
 21 43  1  0  0  0  0
 21 44  1  0  0  0  0
 15 45  1  0  0  0  0
M  CHG  1  15   1
M  END
> <BIOSOLVEIT.HYDE_ESTIMATED_AFFINITY_LOWER_BOUNDARY [nM]>
3499844658.803124

> <BIOSOLVEIT.HYDE_ESTIMATED_AFFINITY_UPPER_BOUNDARY [nM]>
347730259571.359375

> <BIOSOLVEIT.HYDE_LIGAND_EFFICIENCY range: ++, +, 0, -, -->
--

> <BIOSOLVEIT.HYDE_LIGAND_LIPOPHILIC_EFFICIENCY range: ++, +, 0, -, -->
--

> <BIOSOLVEIT.INTER_CLASH range: red, yellow, green>
green

> <BIOSOLVEIT.INTRA_CLASH range: red, yellow, green>
green

> <BIOSOLVEIT.LOGP>
1.3458

> <BIOSOLVEIT.MOLECULAR WEIGHT>
346.276

> <BIOSOLVEIT.MOLECULE_CHECKSUM>
OC44MDU0NDsw

> <BIOSOLVEIT.TORSION_QUALITY range: red, yellow, green, not rotatable>
yellow

> <BIOSOLVEIT.TPSA>
42.77

> <BIOSOLVEIT.SEESAR_FAVORITE>
favorite

> <smc_score>
0.688

> <QED_score>
0.892

> <distance>
0.603

> <SimilarityPheSA_1>
0.662

> <Smiles>
CC(C)(CNC(=O)Cc1ccc(Cl)c(Cl)c1)N1CCOCC1

> <Similarity_SkelSpheres>
0.693

> <Cluster No>
32.0

> <QueryID>
JAN-GHE-5a013bed-2

> <SimilarityPheSA>
0.6624

> <Postera series>
3-aminopyridine-like

> <PDB_code>
Mpro-x10466

> <Approach>
DGM_exploratory_RL

> <ID>
20210628_78

> <SimilarityPheSA_2>
0.697

> <OPTIBRIUM.logD>
2.27962

> <OPTIBRIUM.BBB category>
+

> <OPTIBRIUM.logP>
2.89392

> <OPTIBRIUM.P-gp category>
no

> <OPTIBRIUM.logS>
3.24071

> <OPTIBRIUM.HIA category>
+

> <OPTIBRIUM.PPB90 category>
low

> <OPTIBRIUM.2D6 affinity category>
high

> <OPTIBRIUM.hERG pIC50>
4.7704

> <OPTIBRIUM.2C9 pKi>
4.52793

> <OPTIBRIUM.BBB log([brain]:[blood])>
0.135256

> <OPTIBRIUM.logS @ pH7.4>
2.0001

$$$$
Compound 808_1_04
haSeeSAR  07122114523D 1   1.00000     0.00000     0
SeeSAR 11.0.2 hazemaj
 45 46  0  0  0  0            999 V2000
   21.2712   -6.6982    3.4890 Cl  0  0  0  0  0  0  0  0  0  0  0  0
   21.1226   -8.4152    3.9360 C   0  0  0  0  0  0  0  0  0  0  0  0
   22.1399   -9.0384    4.6508 C   0  0  0  0  0  0  0  0  0  0  0  0
   19.9836   -9.1211    3.5662 C   0  0  0  0  0  0  0  0  0  0  0  0
   23.5883   -8.1123    5.1114 Cl  0  0  0  0  0  0  0  0  0  0  0  0
   22.0333  -10.3792    5.0067 C   0  0  0  0  0  0  0  0  0  0  0  0
   19.8826  -10.4608    3.9240 C   0  0  0  0  0  0  0  0  0  0  0  0
   20.8963  -11.0905    4.6382 C   0  0  0  0  0  0  0  0  0  0  0  0
   18.6444  -11.2479    3.5285 C   0  0  0  0  0  0  0  0  0  0  0  0
   17.5187  -10.9454    4.5042 C   0  0  0  0  0  0  0  0  0  0  0  0
   16.5567  -10.2677    4.1429 O   0  0  0  0  0  0  0  0  0  0  0  0
   17.5728  -11.4107    5.7414 N   0  0  0  0  0  0  0  0  0  0  0  0
   16.4842  -11.1181    6.6850 C   0  0  0  0  0  0  0  0  0  0  0  0
   15.9392  -12.4201    7.2493 C   0  0  0  0  0  0  0  0  0  0  0  0
   14.5926  -12.6651    6.7059 N   0  3  0  0  0  0  0  0  0  0  0  0
   16.8590  -13.5656    6.8592 C   0  0  0  0  0  0  0  0  0  0  0  0
   15.8644  -12.3237    8.7643 C   0  0  0  0  0  0  0  0  0  0  0  0
   13.5411  -12.4044    7.7072 C   0  0  0  0  0  0  0  0  0  0  0  0
   14.4106  -11.7704    5.5497 C   0  0  0  0  0  0  0  0  0  0  0  0
   13.1064  -10.9483    7.6941 C   0  0  0  0  0  0  0  0  0  0  0  0
   12.9463  -11.4039    5.3736 C   0  0  0  0  0  0  0  0  0  0  0  0
   12.4361  -10.6566    6.4744 O   0  0  0  0  0  0  0  0  0  0  0  0
   19.2512   -8.6741    3.0527 H   0  0  0  0  0  0  0  0  0  0  0  0
   22.7652  -10.8259    5.5212 H   0  0  0  0  0  0  0  0  0  0  0  0
   20.8078  -12.0551    4.8868 H   0  0  0  0  0  0  0  0  0  0  0  0
   18.8503  -12.2262    3.5501 H   0  0  0  0  0  0  0  0  0  0  0  0
   18.3642  -10.9866    2.6048 H   0  0  0  0  0  0  0  0  0  0  0  0
   18.3543  -11.9613    6.0349 H   0  0  0  0  0  0  0  0  0  0  0  0
   15.7531  -10.6292    6.2091 H   0  0  0  0  0  0  0  0  0  0  0  0
   16.8332  -10.5516    7.4314 H   0  0  0  0  0  0  0  0  0  0  0  0
   16.5005  -14.4222    7.2304 H   0  0  0  0  0  0  0  0  0  0  0  0
   16.9082  -13.6291    5.8624 H   0  0  0  0  0  0  0  0  0  0  0  0
   17.7735  -13.3994    7.2282 H   0  0  0  0  0  0  0  0  0  0  0  0
   15.5059  -13.1803    9.1355 H   0  0  0  0  0  0  0  0  0  0  0  0
   16.7789  -12.1574    9.1333 H   0  0  0  0  0  0  0  0  0  0  0  0
   15.2594  -11.5700    9.0209 H   0  0  0  0  0  0  0  0  0  0  0  0
   13.8942  -12.6298    8.6151 H   0  0  0  0  0  0  0  0  0  0  0  0
   12.7497  -12.9813    7.5047 H   0  0  0  0  0  0  0  0  0  0  0  0
   14.7341  -12.2323    4.7239 H   0  0  0  0  0  0  0  0  0  0  0  0
   14.9420  -10.9357    5.6945 H   0  0  0  0  0  0  0  0  0  0  0  0
   13.9111  -10.3607    7.7794 H   0  0  0  0  0  0  0  0  0  0  0  0
   12.4877  -10.7796    8.4614 H   0  0  0  0  0  0  0  0  0  0  0  0
   12.4136  -12.2453    5.2824 H   0  0  0  0  0  0  0  0  0  0  0  0
   12.8501  -10.8567    4.5420 H   0  0  0  0  0  0  0  0  0  0  0  0
   14.5284  -13.6151    6.4005 H   0  0  0  0  0  0  0  0  0  0  0  0
  1  2  1  0  0  0  0
  2  3  2  0  0  0  0
  2  4  1  0  0  0  0
  3  5  1  0  0  0  0
  3  6  1  0  0  0  0
  4  7  2  0  0  0  0
  6  8  2  0  0  0  0
  7  9  1  0  0  0  0
  9 10  1  0  0  0  0
 10 11  2  0  0  0  0
 10 12  1  0  0  0  0
 12 13  1  0  0  0  0
 13 14  1  0  0  0  0
 14 15  1  0  0  0  0
 14 16  1  0  0  0  0
 14 17  1  0  0  0  0
 15 18  1  0  0  0  0
 15 19  1  0  0  0  0
 18 20  1  0  0  0  0
 19 21  1  0  0  0  0
 20 22  1  0  0  0  0
  7  8  1  0  0  0  0
 21 22  1  0  0  0  0
  4 23  1  0  0  0  0
  6 24  1  0  0  0  0
  8 25  1  0  0  0  0
  9 26  1  0  0  0  0
  9 27  1  0  0  0  0
 12 28  1  0  0  0  0
 13 29  1  0  0  0  0
 13 30  1  0  0  0  0
 16 31  1  0  0  0  0
 16 32  1  0  0  0  0
 16 33  1  0  0  0  0
 17 34  1  0  0  0  0
 17 35  1  0  0  0  0
 17 36  1  0  0  0  0
 18 37  1  0  0  0  0
 18 38  1  0  0  0  0
 19 39  1  0  0  0  0
 19 40  1  0  0  0  0
 20 41  1  0  0  0  0
 20 42  1  0  0  0  0
 21 43  1  0  0  0  0
 21 44  1  0  0  0  0
 15 45  1  0  0  0  0
M  CHG  1  15   1
M  END
> <BIOSOLVEIT.HYDE_ESTIMATED_AFFINITY_LOWER_BOUNDARY [nM]>
999322174.293235

> <BIOSOLVEIT.HYDE_ESTIMATED_AFFINITY_UPPER_BOUNDARY [nM]>
99288566476.329742

> <BIOSOLVEIT.HYDE_LIGAND_EFFICIENCY range: ++, +, 0, -, -->
--

> <BIOSOLVEIT.HYDE_LIGAND_LIPOPHILIC_EFFICIENCY range: ++, +, 0, -, -->
--

> <BIOSOLVEIT.INTER_CLASH range: red, yellow, green>
green

> <BIOSOLVEIT.INTRA_CLASH range: red, yellow, green>
green

> <BIOSOLVEIT.LOGP>
1.3458

> <BIOSOLVEIT.MOLECULAR WEIGHT>
346.276

> <BIOSOLVEIT.MOLECULE_CHECKSUM>
NS42OTgzMjsw

> <BIOSOLVEIT.TORSION_QUALITY range: red, yellow, green, not rotatable>
yellow

> <BIOSOLVEIT.TPSA>
42.77

> <BIOSOLVEIT.SEESAR_FAVORITE>
favorite

> <smc_score>
0.688

> <QED_score>
0.892

> <distance>
0.603

> <SimilarityPheSA_1>
0.662

> <Smiles>
CC(C)(CNC(=O)Cc1ccc(Cl)c(Cl)c1)N1CCOCC1

> <Similarity_SkelSpheres>
0.693

> <Cluster No>
32.0

> <QueryID>
JAN-GHE-5a013bed-2

> <SimilarityPheSA>
0.6624

> <Postera series>
3-aminopyridine-like

> <PDB_code>
Mpro-x10466

> <Approach>
DGM_exploratory_RL

> <ID>
20210628_78

> <SimilarityPheSA_2>
0.697

> <OPTIBRIUM.logD>
2.27962

> <OPTIBRIUM.BBB category>
+

> <OPTIBRIUM.logP>
2.89392

> <OPTIBRIUM.P-gp category>
no

> <OPTIBRIUM.logS>
3.24071

> <OPTIBRIUM.HIA category>
+

> <OPTIBRIUM.PPB90 category>
low

> <OPTIBRIUM.2D6 affinity category>
high

> <OPTIBRIUM.hERG pIC50>
4.7704

> <OPTIBRIUM.2C9 pKi>
4.52793

> <OPTIBRIUM.BBB log([brain]:[blood])>
0.135256

> <OPTIBRIUM.logS @ pH7.4>
2.0001

$$$$
Compound 808_1_05
haSeeSAR  07122114523D 1   1.00000     0.00000     0
SeeSAR 11.0.2 hazemaj
 45 46  0  0  0  0            999 V2000
   20.5494   -6.2102    3.2532 Cl  0  0  0  0  0  0  0  0  0  0  0  0
   20.5005   -7.9858    3.3637 C   0  0  0  0  0  0  0  0  0  0  0  0
   21.6372   -8.6835    3.7585 C   0  0  0  0  0  0  0  0  0  0  0  0
   19.3277   -8.6670    3.0561 C   0  0  0  0  0  0  0  0  0  0  0  0
   23.1322   -7.8000    4.1506 Cl  0  0  0  0  0  0  0  0  0  0  0  0
   21.6207  -10.0714    3.8506 C   0  0  0  0  0  0  0  0  0  0  0  0
   19.3153  -10.0544    3.1498 C   0  0  0  0  0  0  0  0  0  0  0  0
   20.4496  -10.7569    3.5432 C   0  0  0  0  0  0  0  0  0  0  0  0
   18.0356  -10.8033    2.8140 C   0  0  0  0  0  0  0  0  0  0  0  0
   17.2639  -11.0864    4.0925 C   0  0  0  0  0  0  0  0  0  0  0  0
   16.6783  -10.1724    4.6731 O   0  0  0  0  0  0  0  0  0  0  0  0
   17.2214  -12.3151    4.5813 N   0  0  0  0  0  0  0  0  0  0  0  0
   16.4750  -12.5889    5.8177 C   0  0  0  0  0  0  0  0  0  0  0  0
   15.1501  -13.2496    5.4740 C   0  0  0  0  0  0  0  0  0  0  0  0
   14.0884  -12.6959    6.3312 N   0  3  0  0  0  0  0  0  0  0  0  0
   14.8142  -12.9831    4.0156 C   0  0  0  0  0  0  0  0  0  0  0  0
   15.2566  -14.7484    5.7037 C   0  0  0  0  0  0  0  0  0  0  0  0
   12.7605  -13.0810    5.8293 C   0  0  0  0  0  0  0  0  0  0  0  0
   14.2349  -11.2356    6.4482 C   0  0  0  0  0  0  0  0  0  0  0  0
   11.8806  -11.8689    5.5420 C   0  0  0  0  0  0  0  0  0  0  0  0
   13.0601  -10.6248    7.1983 C   0  0  0  0  0  0  0  0  0  0  0  0
   11.7939  -11.0022    6.6658 O   0  0  0  0  0  0  0  0  0  0  0  0
   18.5086   -8.1684    2.7726 H   0  0  0  0  0  0  0  0  0  0  0  0
   22.4400  -10.5700    4.1338 H   0  0  0  0  0  0  0  0  0  0  0  0
   20.4232  -11.7547    3.6052 H   0  0  0  0  0  0  0  0  0  0  0  0
   18.2631  -11.6668    2.3638 H   0  0  0  0  0  0  0  0  0  0  0  0
   17.4742  -10.2462    2.2021 H   0  0  0  0  0  0  0  0  0  0  0  0
   17.6971  -13.0575    4.1096 H   0  0  0  0  0  0  0  0  0  0  0  0
   16.3039  -11.7302    6.3009 H   0  0  0  0  0  0  0  0  0  0  0  0
   17.0101  -13.1991    6.4019 H   0  0  0  0  0  0  0  0  0  0  0  0
   13.9425  -13.4178    3.7894 H   0  0  0  0  0  0  0  0  0  0  0  0
   14.7441  -11.9970    3.8645 H   0  0  0  0  0  0  0  0  0  0  0  0
   15.5352  -13.3590    3.4335 H   0  0  0  0  0  0  0  0  0  0  0  0
   14.3849  -15.1830    5.4775 H   0  0  0  0  0  0  0  0  0  0  0  0
   15.9775  -15.1243    5.1215 H   0  0  0  0  0  0  0  0  0  0  0  0
   15.4775  -14.9237    6.6630 H   0  0  0  0  0  0  0  0  0  0  0  0
   12.3095  -13.6511    6.5159 H   0  0  0  0  0  0  0  0  0  0  0  0
   12.8745  -13.6039    4.9846 H   0  0  0  0  0  0  0  0  0  0  0  0
   14.2797  -10.8375    5.5319 H   0  0  0  0  0  0  0  0  0  0  0  0
   15.0799  -11.0308    6.9422 H   0  0  0  0  0  0  0  0  0  0  0  0
   10.9619  -12.1846    5.3048 H   0  0  0  0  0  0  0  0  0  0  0  0
   12.2684  -11.3626    4.7717 H   0  0  0  0  0  0  0  0  0  0  0  0
   13.1389   -9.6289    7.1546 H   0  0  0  0  0  0  0  0  0  0  0  0
   13.1042  -10.9211    8.1525 H   0  0  0  0  0  0  0  0  0  0  0  0
   14.1962  -13.0886    7.2445 H   0  0  0  0  0  0  0  0  0  0  0  0
  1  2  1  0  0  0  0
  2  3  2  0  0  0  0
  2  4  1  0  0  0  0
  3  5  1  0  0  0  0
  3  6  1  0  0  0  0
  4  7  2  0  0  0  0
  6  8  2  0  0  0  0
  7  9  1  0  0  0  0
  9 10  1  0  0  0  0
 10 11  2  0  0  0  0
 10 12  1  0  0  0  0
 12 13  1  0  0  0  0
 13 14  1  0  0  0  0
 14 15  1  0  0  0  0
 14 16  1  0  0  0  0
 14 17  1  0  0  0  0
 15 18  1  0  0  0  0
 15 19  1  0  0  0  0
 18 20  1  0  0  0  0
 19 21  1  0  0  0  0
 20 22  1  0  0  0  0
  7  8  1  0  0  0  0
 21 22  1  0  0  0  0
  4 23  1  0  0  0  0
  6 24  1  0  0  0  0
  8 25  1  0  0  0  0
  9 26  1  0  0  0  0
  9 27  1  0  0  0  0
 12 28  1  0  0  0  0
 13 29  1  0  0  0  0
 13 30  1  0  0  0  0
 16 31  1  0  0  0  0
 16 32  1  0  0  0  0
 16 33  1  0  0  0  0
 17 34  1  0  0  0  0
 17 35  1  0  0  0  0
 17 36  1  0  0  0  0
 18 37  1  0  0  0  0
 18 38  1  0  0  0  0
 19 39  1  0  0  0  0
 19 40  1  0  0  0  0
 20 41  1  0  0  0  0
 20 42  1  0  0  0  0
 21 43  1  0  0  0  0
 21 44  1  0  0  0  0
 15 45  1  0  0  0  0
M  CHG  1  15   1
M  END
> <BIOSOLVEIT.HYDE_ESTIMATED_AFFINITY_LOWER_BOUNDARY [nM]>
230870376.495169

> <BIOSOLVEIT.HYDE_ESTIMATED_AFFINITY_UPPER_BOUNDARY [nM]>
22938336918.489639

> <BIOSOLVEIT.HYDE_LIGAND_EFFICIENCY range: ++, +, 0, -, -->
--

> <BIOSOLVEIT.HYDE_LIGAND_LIPOPHILIC_EFFICIENCY range: ++, +, 0, -, -->
--

> <BIOSOLVEIT.INTER_CLASH range: red, yellow, green>
green

> <BIOSOLVEIT.INTRA_CLASH range: red, yellow, green>
green

> <BIOSOLVEIT.LOGP>
1.3458

> <BIOSOLVEIT.MOLECULAR WEIGHT>
346.276

> <BIOSOLVEIT.MOLECULE_CHECKSUM>
Mi4wNjYxOzA=

> <BIOSOLVEIT.TORSION_QUALITY range: red, yellow, green, not rotatable>
yellow

> <BIOSOLVEIT.TPSA>
42.77

> <BIOSOLVEIT.SEESAR_FAVORITE>
favorite

> <smc_score>
0.688

> <QED_score>
0.892

> <distance>
0.603

> <SimilarityPheSA_1>
0.662

> <Smiles>
CC(C)(CNC(=O)Cc1ccc(Cl)c(Cl)c1)N1CCOCC1

> <Similarity_SkelSpheres>
0.693

> <Cluster No>
32.0

> <QueryID>
JAN-GHE-5a013bed-2

> <SimilarityPheSA>
0.6624

> <Postera series>
3-aminopyridine-like

> <PDB_code>
Mpro-x10466

> <Approach>
DGM_exploratory_RL

> <ID>
20210628_78

> <SimilarityPheSA_2>
0.697

> <OPTIBRIUM.logD>
2.27962

> <OPTIBRIUM.BBB category>
+

> <OPTIBRIUM.logP>
2.89392

> <OPTIBRIUM.P-gp category>
no

> <OPTIBRIUM.logS>
3.24071

> <OPTIBRIUM.HIA category>
+

> <OPTIBRIUM.PPB90 category>
low

> <OPTIBRIUM.2D6 affinity category>
high

> <OPTIBRIUM.hERG pIC50>
4.7704

> <OPTIBRIUM.2C9 pKi>
4.52793

> <OPTIBRIUM.BBB log([brain]:[blood])>
0.135256

> <OPTIBRIUM.logS @ pH7.4>
2.0001

$$$$
Compound 808_1_06
haSeeSAR  07122114523D 1   1.00000     0.00000     0
SeeSAR 11.0.2 hazemaj
 45 46  0  0  0  0            999 V2000
   20.9330   -6.4588    3.3186 Cl  0  0  0  0  0  0  0  0  0  0  0  0
   20.8339   -8.2115    3.6147 C   0  0  0  0  0  0  0  0  0  0  0  0
   21.8785   -8.8688    4.2559 C   0  0  0  0  0  0  0  0  0  0  0  0
   19.7060   -8.9114    3.2018 C   0  0  0  0  0  0  0  0  0  0  0  0
   23.3121   -7.9497    4.7737 Cl  0  0  0  0  0  0  0  0  0  0  0  0
   21.8109  -10.2379    4.4938 C   0  0  0  0  0  0  0  0  0  0  0  0
   19.6439  -10.2795    3.4417 C   0  0  0  0  0  0  0  0  0  0  0  0
   20.6851  -10.9432    4.0816 C   0  0  0  0  0  0  0  0  0  0  0  0
   18.4183  -11.0605    2.9977 C   0  0  0  0  0  0  0  0  0  0  0  0
   17.3616  -11.0087    4.0891 C   0  0  0  0  0  0  0  0  0  0  0  0
   16.6410  -10.0170    4.2015 O   0  0  0  0  0  0  0  0  0  0  0  0
   17.2164  -12.0294    4.9182 N   0  0  0  0  0  0  0  0  0  0  0  0
   16.1945  -11.9793    5.9737 C   0  0  0  0  0  0  0  0  0  0  0  0
   15.2895  -13.1953    5.8609 C   0  0  0  0  0  0  0  0  0  0  0  0
   14.1546  -13.0502    6.7880 N   0  3  0  0  0  0  0  0  0  0  0  0
   14.7694  -13.3094    4.4372 C   0  0  0  0  0  0  0  0  0  0  0  0
   16.0761  -14.4468    6.2148 C   0  0  0  0  0  0  0  0  0  0  0  0
   14.2792  -11.7330    7.4334 C   0  0  0  0  0  0  0  0  0  0  0  0
   12.8676  -13.1342    6.0814 C   0  0  0  0  0  0  0  0  0  0  0  0
   12.9179  -11.1938    7.8377 C   0  0  0  0  0  0  0  0  0  0  0  0
   12.4058  -11.7688    5.5915 C   0  0  0  0  0  0  0  0  0  0  0  0
   12.1360  -10.8989    6.6840 O   0  0  0  0  0  0  0  0  0  0  0  0
   18.9540   -8.4400    2.7412 H   0  0  0  0  0  0  0  0  0  0  0  0
   22.5624  -10.7092    4.9554 H   0  0  0  0  0  0  0  0  0  0  0  0
   20.6244  -11.9277    4.2456 H   0  0  0  0  0  0  0  0  0  0  0  0
   18.6736  -12.0119    2.8258 H   0  0  0  0  0  0  0  0  0  0  0  0
   18.0516  -10.6570    2.1593 H   0  0  0  0  0  0  0  0  0  0  0  0
   17.8018  -12.8349    4.8268 H   0  0  0  0  0  0  0  0  0  0  0  0
   15.6494  -11.1472    5.8706 H   0  0  0  0  0  0  0  0  0  0  0  0
   16.6399  -11.9771    6.8690 H   0  0  0  0  0  0  0  0  0  0  0  0
   14.1740  -14.1094    4.3630 H   0  0  0  0  0  0  0  0  0  0  0  0
   14.2519  -12.4860    4.2044 H   0  0  0  0  0  0  0  0  0  0  0  0
   15.5401  -13.4079    3.8076 H   0  0  0  0  0  0  0  0  0  0  0  0
   15.4807  -15.2468    6.1405 H   0  0  0  0  0  0  0  0  0  0  0  0
   16.8468  -14.5453    5.5852 H   0  0  0  0  0  0  0  0  0  0  0  0
   16.4182  -14.3717    7.1514 H   0  0  0  0  0  0  0  0  0  0  0  0
   14.7069  -11.0945    6.7936 H   0  0  0  0  0  0  0  0  0  0  0  0
   14.8512  -11.8212    8.2489 H   0  0  0  0  0  0  0  0  0  0  0  0
   12.1792  -13.5051    6.7045 H   0  0  0  0  0  0  0  0  0  0  0  0
   12.9685  -13.7437    5.2952 H   0  0  0  0  0  0  0  0  0  0  0  0
   13.0406  -10.3591    8.3744 H   0  0  0  0  0  0  0  0  0  0  0  0
   12.4435  -11.8789    8.3905 H   0  0  0  0  0  0  0  0  0  0  0  0
   11.5731  -11.8805    5.0492 H   0  0  0  0  0  0  0  0  0  0  0  0
   13.1227  -11.3661    5.0223 H   0  0  0  0  0  0  0  0  0  0  0  0
   14.1996  -13.7671    7.4836 H   0  0  0  0  0  0  0  0  0  0  0  0
  1  2  1  0  0  0  0
  2  3  2  0  0  0  0
  2  4  1  0  0  0  0
  3  5  1  0  0  0  0
  3  6  1  0  0  0  0
  4  7  2  0  0  0  0
  6  8  2  0  0  0  0
  7  9  1  0  0  0  0
  9 10  1  0  0  0  0
 10 11  2  0  0  0  0
 10 12  1  0  0  0  0
 12 13  1  0  0  0  0
 13 14  1  0  0  0  0
 14 15  1  0  0  0  0
 14 16  1  0  0  0  0
 14 17  1  0  0  0  0
 15 18  1  0  0  0  0
 15 19  1  0  0  0  0
 18 20  1  0  0  0  0
 19 21  1  0  0  0  0
 20 22  1  0  0  0  0
  7  8  1  0  0  0  0
 21 22  1  0  0  0  0
  4 23  1  0  0  0  0
  6 24  1  0  0  0  0
  8 25  1  0  0  0  0
  9 26  1  0  0  0  0
  9 27  1  0  0  0  0
 12 28  1  0  0  0  0
 13 29  1  0  0  0  0
 13 30  1  0  0  0  0
 16 31  1  0  0  0  0
 16 32  1  0  0  0  0
 16 33  1  0  0  0  0
 17 34  1  0  0  0  0
 17 35  1  0  0  0  0
 17 36  1  0  0  0  0
 18 37  1  0  0  0  0
 18 38  1  0  0  0  0
 19 39  1  0  0  0  0
 19 40  1  0  0  0  0
 20 41  1  0  0  0  0
 20 42  1  0  0  0  0
 21 43  1  0  0  0  0
 21 44  1  0  0  0  0
 15 45  1  0  0  0  0
M  CHG  1  15   1
M  END
> <BIOSOLVEIT.HYDE_ESTIMATED_AFFINITY_LOWER_BOUNDARY [nM]>
5450530.200226

> <BIOSOLVEIT.HYDE_ESTIMATED_AFFINITY_UPPER_BOUNDARY [nM]>
541542401.477371

> <BIOSOLVEIT.HYDE_LIGAND_EFFICIENCY range: ++, +, 0, -, -->
--

> <BIOSOLVEIT.HYDE_LIGAND_LIPOPHILIC_EFFICIENCY range: ++, +, 0, -, -->
--

> <BIOSOLVEIT.INTER_CLASH range: red, yellow, green>
green

> <BIOSOLVEIT.INTRA_CLASH range: red, yellow, green>
green

> <BIOSOLVEIT.LOGP>
1.3458

> <BIOSOLVEIT.MOLECULAR WEIGHT>
346.276

> <BIOSOLVEIT.MOLECULE_CHECKSUM>
LTcuMjIwNDM7MC4zMjgyMDE=

> <BIOSOLVEIT.TORSION_QUALITY range: red, yellow, green, not rotatable>
green

> <BIOSOLVEIT.TPSA>
42.77

> <BIOSOLVEIT.SEESAR_FAVORITE>
favorite

> <smc_score>
0.688

> <QED_score>
0.892

> <distance>
0.603

> <SimilarityPheSA_1>
0.662

> <Smiles>
CC(C)(CNC(=O)Cc1ccc(Cl)c(Cl)c1)N1CCOCC1

> <Similarity_SkelSpheres>
0.693

> <Cluster No>
32.0

> <QueryID>
JAN-GHE-5a013bed-2

> <SimilarityPheSA>
0.6624

> <Postera series>
3-aminopyridine-like

> <PDB_code>
Mpro-x10466

> <Approach>
DGM_exploratory_RL

> <ID>
20210628_78

> <SimilarityPheSA_2>
0.697

> <OPTIBRIUM.logD>
2.27962

> <OPTIBRIUM.BBB category>
+

> <OPTIBRIUM.logP>
2.89392

> <OPTIBRIUM.P-gp category>
no

> <OPTIBRIUM.logS>
3.24071

> <OPTIBRIUM.HIA category>
+

> <OPTIBRIUM.PPB90 category>
low

> <OPTIBRIUM.2D6 affinity category>
high

> <OPTIBRIUM.hERG pIC50>
4.7704

> <OPTIBRIUM.2C9 pKi>
4.52793

> <OPTIBRIUM.BBB log([brain]:[blood])>
0.135256

> <OPTIBRIUM.logS @ pH7.4>
2.0001

$$$$
Compound 808_1_09
haSeeSAR  07122114523D 1   1.00000     0.00000     0
SeeSAR 11.0.2 hazemaj
 45 46  0  0  0  0            999 V2000
   20.6562   -6.0969    3.3073 Cl  0  0  0  0  0  0  0  0  0  0  0  0
   20.5858   -7.8747    3.3486 C   0  0  0  0  0  0  0  0  0  0  0  0
   21.7141   -8.6009    3.7153 C   0  0  0  0  0  0  0  0  0  0  0  0
   19.4050   -8.5292    3.0151 C   0  0  0  0  0  0  0  0  0  0  0  0
   23.2196   -7.7514    4.1409 Cl  0  0  0  0  0  0  0  0  0  0  0  0
   21.6809   -9.9911    3.7532 C   0  0  0  0  0  0  0  0  0  0  0  0
   19.3758   -9.9189    3.0547 C   0  0  0  0  0  0  0  0  0  0  0  0
   20.5015  -10.6499    3.4199 C   0  0  0  0  0  0  0  0  0  0  0  0
   18.0873  -10.6387    2.6905 C   0  0  0  0  0  0  0  0  0  0  0  0
   17.3469  -11.0259    3.9603 C   0  0  0  0  0  0  0  0  0  0  0  0
   16.6479  -10.1965    4.5423 O   0  0  0  0  0  0  0  0  0  0  0  0
   17.4537  -12.2542    4.4399 N   0  0  0  0  0  0  0  0  0  0  0  0
   16.7376  -12.6286    5.6679 C   0  0  0  0  0  0  0  0  0  0  0  0
   15.5334  -13.4848    5.3112 C   0  0  0  0  0  0  0  0  0  0  0  0
   14.3329  -12.9418    5.9689 N   0  3  0  0  0  0  0  0  0  0  0  0
   15.3336  -13.4756    3.8044 C   0  0  0  0  0  0  0  0  0  0  0  0
   15.7680  -14.9107    5.7825 C   0  0  0  0  0  0  0  0  0  0  0  0
   14.5453  -11.5323    6.3243 C   0  0  0  0  0  0  0  0  0  0  0  0
   13.1475  -13.1579    5.1173 C   0  0  0  0  0  0  0  0  0  0  0  0
   13.4397  -10.6483    5.7618 C   0  0  0  0  0  0  0  0  0  0  0  0
   11.9324  -12.4881    5.7533 C   0  0  0  0  0  0  0  0  0  0  0  0
   12.1639  -11.1431    6.1577 O   0  0  0  0  0  0  0  0  0  0  0  0
   18.5919   -8.0101    2.7516 H   0  0  0  0  0  0  0  0  0  0  0  0
   22.4941  -10.5102    4.0165 H   0  0  0  0  0  0  0  0  0  0  0  0
   20.4632  -11.6489    3.4431 H   0  0  0  0  0  0  0  0  0  0  0  0
   18.3024  -11.4624    2.1659 H   0  0  0  0  0  0  0  0  0  0  0  0
   17.5116  -10.0339    2.1402 H   0  0  0  0  0  0  0  0  0  0  0  0
   18.0215  -12.9281    3.9671 H   0  0  0  0  0  0  0  0  0  0  0  0
   16.4309  -11.8021    6.1401 H   0  0  0  0  0  0  0  0  0  0  0  0
   17.3494  -13.1464    6.2658 H   0  0  0  0  0  0  0  0  0  0  0  0
   14.5413  -14.0388    3.5698 H   0  0  0  0  0  0  0  0  0  0  0  0
   15.1792  -12.5374    3.4944 H   0  0  0  0  0  0  0  0  0  0  0  0
   16.1488  -13.8443    3.3579 H   0  0  0  0  0  0  0  0  0  0  0  0
   14.9758  -15.4739    5.5479 H   0  0  0  0  0  0  0  0  0  0  0  0
   16.5832  -15.2795    5.3359 H   0  0  0  0  0  0  0  0  0  0  0  0
   15.8995  -14.9168    6.7738 H   0  0  0  0  0  0  0  0  0  0  0  0
   15.4238  -11.2315    5.9531 H   0  0  0  0  0  0  0  0  0  0  0  0
   14.5570  -11.4456    7.3204 H   0  0  0  0  0  0  0  0  0  0  0  0
   12.9772  -14.1392    5.0263 H   0  0  0  0  0  0  0  0  0  0  0  0
   13.3104  -12.7627    4.2132 H   0  0  0  0  0  0  0  0  0  0  0  0
   13.4966  -10.6435    4.7634 H   0  0  0  0  0  0  0  0  0  0  0  0
   13.5541   -9.7167    6.1067 H   0  0  0  0  0  0  0  0  0  0  0  0
   11.6656  -13.0179    6.5582 H   0  0  0  0  0  0  0  0  0  0  0  0
   11.1855  -12.4932    5.0883 H   0  0  0  0  0  0  0  0  0  0  0  0
   14.1943  -13.4518    6.8178 H   0  0  0  0  0  0  0  0  0  0  0  0
  1  2  1  0  0  0  0
  2  3  2  0  0  0  0
  2  4  1  0  0  0  0
  3  5  1  0  0  0  0
  3  6  1  0  0  0  0
  4  7  2  0  0  0  0
  6  8  2  0  0  0  0
  7  9  1  0  0  0  0
  9 10  1  0  0  0  0
 10 11  2  0  0  0  0
 10 12  1  0  0  0  0
 12 13  1  0  0  0  0
 13 14  1  0  0  0  0
 14 15  1  0  0  0  0
 14 16  1  0  0  0  0
 14 17  1  0  0  0  0
 15 18  1  0  0  0  0
 15 19  1  0  0  0  0
 18 20  1  0  0  0  0
 19 21  1  0  0  0  0
 20 22  1  0  0  0  0
  7  8  1  0  0  0  0
 21 22  1  0  0  0  0
  4 23  1  0  0  0  0
  6 24  1  0  0  0  0
  8 25  1  0  0  0  0
  9 26  1  0  0  0  0
  9 27  1  0  0  0  0
 12 28  1  0  0  0  0
 13 29  1  0  0  0  0
 13 30  1  0  0  0  0
 16 31  1  0  0  0  0
 16 32  1  0  0  0  0
 16 33  1  0  0  0  0
 17 34  1  0  0  0  0
 17 35  1  0  0  0  0
 17 36  1  0  0  0  0
 18 37  1  0  0  0  0
 18 38  1  0  0  0  0
 19 39  1  0  0  0  0
 19 40  1  0  0  0  0
 20 41  1  0  0  0  0
 20 42  1  0  0  0  0
 21 43  1  0  0  0  0
 21 44  1  0  0  0  0
 15 45  1  0  0  0  0
M  CHG  1  15   1
M  END
> <BIOSOLVEIT.HYDE_ESTIMATED_AFFINITY_LOWER_BOUNDARY [nM]>
6285758711.646857

> <BIOSOLVEIT.HYDE_ESTIMATED_AFFINITY_UPPER_BOUNDARY [nM]>
624527292348.848267

> <BIOSOLVEIT.HYDE_LIGAND_EFFICIENCY range: ++, +, 0, -, -->
--

> <BIOSOLVEIT.HYDE_LIGAND_LIPOPHILIC_EFFICIENCY range: ++, +, 0, -, -->
--

> <BIOSOLVEIT.INTER_CLASH range: red, yellow, green>
green

> <BIOSOLVEIT.INTRA_CLASH range: red, yellow, green>
green

> <BIOSOLVEIT.LOGP>
1.3458

> <BIOSOLVEIT.MOLECULAR WEIGHT>
346.276

> <BIOSOLVEIT.MOLECULE_CHECKSUM>
MTAuMjU3OzA=

> <BIOSOLVEIT.TORSION_QUALITY range: red, yellow, green, not rotatable>
yellow

> <BIOSOLVEIT.TPSA>
42.77

> <BIOSOLVEIT.SEESAR_FAVORITE>
favorite

> <smc_score>
0.688

> <QED_score>
0.892

> <distance>
0.603

> <SimilarityPheSA_1>
0.662

> <Smiles>
CC(C)(CNC(=O)Cc1ccc(Cl)c(Cl)c1)N1CCOCC1

> <Similarity_SkelSpheres>
0.693

> <Cluster No>
32.0

> <QueryID>
JAN-GHE-5a013bed-2

> <SimilarityPheSA>
0.6624

> <Postera series>
3-aminopyridine-like

> <PDB_code>
Mpro-x10466

> <Approach>
DGM_exploratory_RL

> <ID>
20210628_78

> <SimilarityPheSA_2>
0.697

> <OPTIBRIUM.logD>
2.27962

> <OPTIBRIUM.BBB category>
+

> <OPTIBRIUM.logP>
2.89392

> <OPTIBRIUM.P-gp category>
no

> <OPTIBRIUM.logS>
3.24071

> <OPTIBRIUM.HIA category>
+

> <OPTIBRIUM.PPB90 category>
low

> <OPTIBRIUM.2D6 affinity category>
high

> <OPTIBRIUM.hERG pIC50>
4.7704

> <OPTIBRIUM.2C9 pKi>
4.52793

> <OPTIBRIUM.BBB log([brain]:[blood])>
0.135256

> <OPTIBRIUM.logS @ pH7.4>
2.0001

$$$$
Compound 812_1_6
haSeeSAR  07122114523D 1   1.00000     0.00000     0
SeeSAR 11.0.2 hazemaj
 46 48  0  0  0  0            999 V2000
   15.9670  -15.2071    1.4955 Cl  0  0  0  0  0  0  0  0  0  0  0  0
   15.9859  -14.9286    3.2539 C   0  0  0  0  0  0  0  0  0  0  0  0
   16.5029  -15.8984    4.1061 C   0  0  0  0  0  0  0  0  0  0  0  0
   15.4825  -13.7367    3.7620 C   0  0  0  0  0  0  0  0  0  0  0  0
   17.1405  -17.4164    3.4300 Cl  0  0  0  0  0  0  0  0  0  0  0  0
   16.5240  -15.6904    5.4817 C   0  0  0  0  0  0  0  0  0  0  0  0
   15.5056  -13.5344    5.1374 C   0  0  0  0  0  0  0  0  0  0  0  0
   16.0206  -14.5001    5.9956 C   0  0  0  0  0  0  0  0  0  0  0  0
   14.9597  -12.2365    5.7108 C   0  0  0  0  0  0  0  0  0  0  0  0
   13.8613  -12.5788    6.7051 C   0  0  0  0  0  0  0  0  0  0  0  0
   14.3808  -11.3915    4.5882 C   0  0  0  0  0  0  0  0  0  0  0  0
   16.1099  -11.4937    6.3751 C   0  0  0  0  0  0  0  0  0  0  0  0
   13.1075  -11.3355    7.1554 C   0  0  0  0  0  0  0  0  0  0  0  0
   12.9037  -11.0698    4.7941 C   0  0  0  0  0  0  0  0  0  0  0  0
   17.3294  -11.6592    5.5710 N   0  0  0  0  0  0  0  0  0  0  0  0
   12.7333  -10.4800    6.0807 O   0  0  0  0  0  0  0  0  0  0  0  0
   17.5825  -10.8267    4.5742 C   0  0  0  0  0  0  0  0  0  0  0  0
   16.7968   -9.9138    4.3201 O   0  0  0  0  0  0  0  0  0  0  0  0
   18.8435  -10.9978    3.7429 C   0  0  0  0  0  0  0  0  0  0  0  0
   19.5806   -9.6715    3.6622 C   0  0  0  0  0  0  0  0  0  0  0  0
   19.0674   -8.6650    2.8515 C   0  0  0  0  0  0  0  0  0  0  0  0
   20.7484   -9.4791    4.3932 C   0  0  0  0  0  0  0  0  0  0  0  0
   19.7451   -7.4528    2.7816 C   0  0  0  0  0  0  0  0  0  0  0  0
   21.4227   -8.2646    4.3200 C   0  0  0  0  0  0  0  0  0  0  0  0
   19.2767   -6.4724    2.0149 F   0  0  0  0  0  0  0  0  0  0  0  0
   20.9138   -7.2544    3.5104 C   0  0  0  0  0  0  0  0  0  0  0  0
   21.5549   -6.0907    3.4366 F   0  0  0  0  0  0  0  0  0  0  0  0
   15.1109  -13.0384    3.1503 H   0  0  0  0  0  0  0  0  0  0  0  0
   16.8967  -16.3883    6.0933 H   0  0  0  0  0  0  0  0  0  0  0  0
   16.0288  -14.3386    6.9824 H   0  0  0  0  0  0  0  0  0  0  0  0
   14.2720  -13.0169    7.5047 H   0  0  0  0  0  0  0  0  0  0  0  0
   13.2173  -13.2102    6.2729 H   0  0  0  0  0  0  0  0  0  0  0  0
   14.4825  -11.8902    3.7273 H   0  0  0  0  0  0  0  0  0  0  0  0
   14.8911  -10.5328    4.5383 H   0  0  0  0  0  0  0  0  0  0  0  0
   16.2617  -11.8651    7.2910 H   0  0  0  0  0  0  0  0  0  0  0  0
   15.8844  -10.5218    6.4425 H   0  0  0  0  0  0  0  0  0  0  0  0
   13.6922  -10.8201    7.7819 H   0  0  0  0  0  0  0  0  0  0  0  0
   12.2783  -11.6238    7.6344 H   0  0  0  0  0  0  0  0  0  0  0  0
   12.3661  -11.9111    4.7368 H   0  0  0  0  0  0  0  0  0  0  0  0
   12.5981  -10.4303    4.0887 H   0  0  0  0  0  0  0  0  0  0  0  0
   17.9677  -12.4008    5.7774 H   0  0  0  0  0  0  0  0  0  0  0  0
   18.5970  -11.2988    2.8217 H   0  0  0  0  0  0  0  0  0  0  0  0
   19.4343  -11.6821    4.1703 H   0  0  0  0  0  0  0  0  0  0  0  0
   18.2272   -8.8101    2.3291 H   0  0  0  0  0  0  0  0  0  0  0  0
   21.1030  -10.2139    4.9714 H   0  0  0  0  0  0  0  0  0  0  0  0
   22.2627   -8.1197    4.8428 H   0  0  0  0  0  0  0  0  0  0  0  0
  1  2  1  0  0  0  0
  2  3  2  0  0  0  0
  2  4  1  0  0  0  0
  3  5  1  0  0  0  0
  3  6  1  0  0  0  0
  4  7  2  0  0  0  0
  6  8  2  0  0  0  0
  7  9  1  0  0  0  0
  9 10  1  0  0  0  0
  9 11  1  0  0  0  0
  9 12  1  0  0  0  0
 10 13  1  0  0  0  0
 11 14  1  0  0  0  0
 12 15  1  0  0  0  0
 13 16  1  0  0  0  0
 15 17  1  0  0  0  0
 17 18  2  0  0  0  0
 17 19  1  0  0  0  0
 19 20  1  0  0  0  0
 20 21  2  0  0  0  0
 20 22  1  0  0  0  0
 21 23  1  0  0  0  0
 22 24  2  0  0  0  0
 23 25  1  0  0  0  0
 23 26  2  0  0  0  0
 26 27  1  0  0  0  0
  7  8  1  0  0  0  0
 14 16  1  0  0  0  0
 24 26  1  0  0  0  0
  4 28  1  0  0  0  0
  6 29  1  0  0  0  0
  8 30  1  0  0  0  0
 10 31  1  0  0  0  0
 10 32  1  0  0  0  0
 11 33  1  0  0  0  0
 11 34  1  0  0  0  0
 12 35  1  0  0  0  0
 12 36  1  0  0  0  0
 13 37  1  0  0  0  0
 13 38  1  0  0  0  0
 14 39  1  0  0  0  0
 14 40  1  0  0  0  0
 15 41  1  0  0  0  0
 19 42  1  0  0  0  0
 19 43  1  0  0  0  0
 21 44  1  0  0  0  0
 22 45  1  0  0  0  0
 24 46  1  0  0  0  0
M  END
> <BIOSOLVEIT.HYDE_ESTIMATED_AFFINITY_LOWER_BOUNDARY [nM]>
3226840.961681

> <BIOSOLVEIT.HYDE_ESTIMATED_AFFINITY_UPPER_BOUNDARY [nM]>
320605728.136724

> <BIOSOLVEIT.HYDE_LIGAND_EFFICIENCY range: ++, +, 0, -, -->
--

> <BIOSOLVEIT.HYDE_LIGAND_LIPOPHILIC_EFFICIENCY range: ++, +, 0, -, -->
--

> <BIOSOLVEIT.INTER_CLASH range: red, yellow, green>
green

> <BIOSOLVEIT.INTRA_CLASH range: red, yellow, green>
yellow

> <BIOSOLVEIT.LOGP>
4.6787

> <BIOSOLVEIT.MOLECULAR WEIGHT>
414.277

> <BIOSOLVEIT.MOLECULE_CHECKSUM>
LTguNTE5OTI7MC4zMTU1NTM=

> <BIOSOLVEIT.TORSION_QUALITY range: red, yellow, green, not rotatable>
green

> <BIOSOLVEIT.TPSA>
38.33

> <BIOSOLVEIT.SEESAR_FAVORITE>
favorite

> <smc_score>
0.75

> <QED_score>
0.772

> <distance>
0.652

> <SimilarityPheSA_1>
0.669

> <Smiles>
O=C(Cc1ccc(F)c(F)c1)NCC1(c2ccc(Cl)c(Cl)c2)CCOCC1

> <Similarity_SkelSpheres>
0.661

> <Cluster No>
33.0

> <QueryID>
ADA-UCB-6c2cb422-1

> <SimilarityPheSA>
0.6694

> <Postera series>
3-aminopyridine-like

> <PDB_code>
Mpro-x10959

> <Approach>
DGM_exploratory_RL

> <ID>
20210628_82

> <SimilarityPheSA_2>
0.697

> <OPTIBRIUM.logD>
4.5828

> <OPTIBRIUM.BBB category>
+

> <OPTIBRIUM.logP>
4.5828

> <OPTIBRIUM.P-gp category>
no

> <OPTIBRIUM.logS>
-0.447257

> <OPTIBRIUM.HIA category>
+

> <OPTIBRIUM.PPB90 category>
high

> <OPTIBRIUM.2D6 affinity category>
medium

> <OPTIBRIUM.hERG pIC50>
5.14607

> <OPTIBRIUM.2C9 pKi>
5.75004

> <OPTIBRIUM.BBB log([brain]:[blood])>
0.00570309

> <OPTIBRIUM.logS @ pH7.4>
-0.447257

$$$$
Compound 812_1_7
haSeeSAR  07122114523D 1   1.00000     0.00000     0
SeeSAR 11.0.2 hazemaj
 46 48  0  0  0  0            999 V2000
   14.2336  -17.8415    5.4248 Cl  0  0  0  0  0  0  0  0  0  0  0  0
   14.3520  -16.2390    4.6580 C   0  0  0  0  0  0  0  0  0  0  0  0
   14.3984  -16.1328    3.2721 C   0  0  0  0  0  0  0  0  0  0  0  0
   14.3952  -15.1016    5.4560 C   0  0  0  0  0  0  0  0  0  0  0  0
   14.3424  -17.6048    2.2731 Cl  0  0  0  0  0  0  0  0  0  0  0  0
   14.4892  -14.8854    2.6626 C   0  0  0  0  0  0  0  0  0  0  0  0
   14.4864  -13.8577    4.8416 C   0  0  0  0  0  0  0  0  0  0  0  0
   14.5340  -13.7441    3.4562 C   0  0  0  0  0  0  0  0  0  0  0  0
   14.5344  -12.6031    5.6984 C   0  0  0  0  0  0  0  0  0  0  0  0
   14.1110  -11.3702    4.9111 C   0  0  0  0  0  0  0  0  0  0  0  0
   13.4979  -12.7418    6.8003 C   0  0  0  0  0  0  0  0  0  0  0  0
   15.9313  -12.3773    6.2584 C   0  0  0  0  0  0  0  0  0  0  0  0
   12.5977  -11.2354    4.9077 C   0  0  0  0  0  0  0  0  0  0  0  0
   12.9708  -11.3909    7.2449 C   0  0  0  0  0  0  0  0  0  0  0  0
   16.9114  -12.4234    5.1638 N   0  0  0  0  0  0  0  0  0  0  0  0
   12.1253  -10.9029    6.2115 O   0  0  0  0  0  0  0  0  0  0  0  0
   17.2546  -11.3105    4.5361 C   0  0  0  0  0  0  0  0  0  0  0  0
   16.7532  -10.2365    4.8685 O   0  0  0  0  0  0  0  0  0  0  0  0
   18.2681  -11.3581    3.4043 C   0  0  0  0  0  0  0  0  0  0  0  0
   19.1821  -10.1472    3.4915 C   0  0  0  0  0  0  0  0  0  0  0  0
   18.7937   -8.9654    2.8701 C   0  0  0  0  0  0  0  0  0  0  0  0
   20.3844  -10.2319    4.1858 C   0  0  0  0  0  0  0  0  0  0  0  0
   19.6331   -7.8598    2.9532 C   0  0  0  0  0  0  0  0  0  0  0  0
   21.2206   -9.1231    4.2664 C   0  0  0  0  0  0  0  0  0  0  0  0
   19.2867   -6.7167    2.3691 F   0  0  0  0  0  0  0  0  0  0  0  0
   20.8373   -7.9383    3.6463 C   0  0  0  0  0  0  0  0  0  0  0  0
   21.6333   -6.8747    3.7201 F   0  0  0  0  0  0  0  0  0  0  0  0
   14.3614  -15.1764    6.4526 H   0  0  0  0  0  0  0  0  0  0  0  0
   14.5220  -14.8104    1.6659 H   0  0  0  0  0  0  0  0  0  0  0  0
   14.6004  -12.8416    3.0307 H   0  0  0  0  0  0  0  0  0  0  0  0
   14.4362  -11.4535    3.9691 H   0  0  0  0  0  0  0  0  0  0  0  0
   14.5129  -10.5570    5.3318 H   0  0  0  0  0  0  0  0  0  0  0  0
   13.9168  -13.2004    7.5839 H   0  0  0  0  0  0  0  0  0  0  0  0
   12.7350  -13.2918    6.4606 H   0  0  0  0  0  0  0  0  0  0  0  0
   16.1426  -13.0919    6.9254 H   0  0  0  0  0  0  0  0  0  0  0  0
   15.9711  -11.4831    6.7042 H   0  0  0  0  0  0  0  0  0  0  0  0
   12.1902  -12.1024    4.6209 H   0  0  0  0  0  0  0  0  0  0  0  0
   12.3324  -10.5145    4.2674 H   0  0  0  0  0  0  0  0  0  0  0  0
   13.7315  -10.7585    7.3912 H   0  0  0  0  0  0  0  0  0  0  0  0
   12.4511  -11.4893    8.0936 H   0  0  0  0  0  0  0  0  0  0  0  0
   17.3188  -13.2957    4.8938 H   0  0  0  0  0  0  0  0  0  0  0  0
   17.7885  -11.3511    2.5268 H   0  0  0  0  0  0  0  0  0  0  0  0
   18.8131  -12.1931    3.4796 H   0  0  0  0  0  0  0  0  0  0  0  0
   17.9277   -8.9116    2.3729 H   0  0  0  0  0  0  0  0  0  0  0  0
   20.6477  -11.0898    4.6270 H   0  0  0  0  0  0  0  0  0  0  0  0
   22.0864   -9.1770    4.7638 H   0  0  0  0  0  0  0  0  0  0  0  0
  1  2  1  0  0  0  0
  2  3  2  0  0  0  0
  2  4  1  0  0  0  0
  3  5  1  0  0  0  0
  3  6  1  0  0  0  0
  4  7  2  0  0  0  0
  6  8  2  0  0  0  0
  7  9  1  0  0  0  0
  9 10  1  0  0  0  0
  9 11  1  0  0  0  0
  9 12  1  0  0  0  0
 10 13  1  0  0  0  0
 11 14  1  0  0  0  0
 12 15  1  0  0  0  0
 13 16  1  0  0  0  0
 15 17  1  0  0  0  0
 17 18  2  0  0  0  0
 17 19  1  0  0  0  0
 19 20  1  0  0  0  0
 20 21  2  0  0  0  0
 20 22  1  0  0  0  0
 21 23  1  0  0  0  0
 22 24  2  0  0  0  0
 23 25  1  0  0  0  0
 23 26  2  0  0  0  0
 26 27  1  0  0  0  0
  7  8  1  0  0  0  0
 14 16  1  0  0  0  0
 24 26  1  0  0  0  0
  4 28  1  0  0  0  0
  6 29  1  0  0  0  0
  8 30  1  0  0  0  0
 10 31  1  0  0  0  0
 10 32  1  0  0  0  0
 11 33  1  0  0  0  0
 11 34  1  0  0  0  0
 12 35  1  0  0  0  0
 12 36  1  0  0  0  0
 13 37  1  0  0  0  0
 13 38  1  0  0  0  0
 14 39  1  0  0  0  0
 14 40  1  0  0  0  0
 15 41  1  0  0  0  0
 19 42  1  0  0  0  0
 19 43  1  0  0  0  0
 21 44  1  0  0  0  0
 22 45  1  0  0  0  0
 24 46  1  0  0  0  0
M  END
> <BIOSOLVEIT.HYDE_ESTIMATED_AFFINITY_LOWER_BOUNDARY [nM]>
10638756.280954

> <BIOSOLVEIT.HYDE_ESTIMATED_AFFINITY_UPPER_BOUNDARY [nM]>
1057023337.818018

> <BIOSOLVEIT.HYDE_LIGAND_EFFICIENCY range: ++, +, 0, -, -->
--

> <BIOSOLVEIT.HYDE_LIGAND_LIPOPHILIC_EFFICIENCY range: ++, +, 0, -, -->
--

> <BIOSOLVEIT.INTER_CLASH range: red, yellow, green>
green

> <BIOSOLVEIT.INTRA_CLASH range: red, yellow, green>
green

> <BIOSOLVEIT.LOGP>
4.6787

> <BIOSOLVEIT.MOLECULAR WEIGHT>
414.277

> <BIOSOLVEIT.MOLECULE_CHECKSUM>
LTUuNTYyNTM7MC4yMDYwMTk=

> <BIOSOLVEIT.TORSION_QUALITY range: red, yellow, green, not rotatable>
green

> <BIOSOLVEIT.TPSA>
38.33

> <BIOSOLVEIT.SEESAR_FAVORITE>
favorite

> <smc_score>
0.75

> <QED_score>
0.772

> <distance>
0.652

> <SimilarityPheSA_1>
0.669

> <Smiles>
O=C(Cc1ccc(F)c(F)c1)NCC1(c2ccc(Cl)c(Cl)c2)CCOCC1

> <Similarity_SkelSpheres>
0.661

> <Cluster No>
33.0

> <QueryID>
ADA-UCB-6c2cb422-1

> <SimilarityPheSA>
0.6694

> <Postera series>
3-aminopyridine-like

> <PDB_code>
Mpro-x10959

> <Approach>
DGM_exploratory_RL

> <ID>
20210628_82

> <SimilarityPheSA_2>
0.697

> <OPTIBRIUM.logD>
4.5828

> <OPTIBRIUM.BBB category>
+

> <OPTIBRIUM.logP>
4.5828

> <OPTIBRIUM.P-gp category>
no

> <OPTIBRIUM.logS>
-0.447257

> <OPTIBRIUM.HIA category>
+

> <OPTIBRIUM.PPB90 category>
high

> <OPTIBRIUM.2D6 affinity category>
medium

> <OPTIBRIUM.hERG pIC50>
5.14607

> <OPTIBRIUM.2C9 pKi>
5.75004

> <OPTIBRIUM.BBB log([brain]:[blood])>
0.00570309

> <OPTIBRIUM.logS @ pH7.4>
-0.447257

$$$$
Compound 812_1_8
haSeeSAR  07122114523D 1   1.00000     0.00000     0
SeeSAR 11.0.2 hazemaj
 46 48  0  0  0  0            999 V2000
   17.3169  -16.8405    6.6380 Cl  0  0  0  0  0  0  0  0  0  0  0  0
   16.6061  -15.6330    5.5396 C   0  0  0  0  0  0  0  0  0  0  0  0
   16.5774  -15.8706    4.1696 C   0  0  0  0  0  0  0  0  0  0  0  0
   16.0815  -14.4575    6.0644 C   0  0  0  0  0  0  0  0  0  0  0  0
   17.2567  -17.3834    3.5231 Cl  0  0  0  0  0  0  0  0  0  0  0  0
   16.0228  -14.9345    3.3024 C   0  0  0  0  0  0  0  0  0  0  0  0
   15.5289  -13.5254    5.1931 C   0  0  0  0  0  0  0  0  0  0  0  0
   15.4974  -13.7561    3.8220 C   0  0  0  0  0  0  0  0  0  0  0  0
   14.9500  -12.2345    5.7494 C   0  0  0  0  0  0  0  0  0  0  0  0
   13.8707  -12.5916    6.7593 C   0  0  0  0  0  0  0  0  0  0  0  0
   14.3367  -11.4261    4.6181 C   0  0  0  0  0  0  0  0  0  0  0  0
   16.0836  -11.4471    6.3905 C   0  0  0  0  0  0  0  0  0  0  0  0
   13.0846  -11.3633    7.1955 C   0  0  0  0  0  0  0  0  0  0  0  0
   12.8528  -11.1442    4.8320 C   0  0  0  0  0  0  0  0  0  0  0  0
   17.3101  -11.6214    5.5992 N   0  0  0  0  0  0  0  0  0  0  0  0
   12.6761  -10.5377    6.1099 O   0  0  0  0  0  0  0  0  0  0  0  0
   17.5548  -10.8221    4.5737 C   0  0  0  0  0  0  0  0  0  0  0  0
   16.7555   -9.9325    4.2822 O   0  0  0  0  0  0  0  0  0  0  0  0
   18.8231  -11.0023    3.7554 C   0  0  0  0  0  0  0  0  0  0  0  0
   19.5655   -9.6789    3.6738 C   0  0  0  0  0  0  0  0  0  0  0  0
   19.0574   -8.6717    2.8609 C   0  0  0  0  0  0  0  0  0  0  0  0
   20.7327   -9.4901    4.4066 C   0  0  0  0  0  0  0  0  0  0  0  0
   19.7400   -7.4623    2.7901 C   0  0  0  0  0  0  0  0  0  0  0  0
   21.4119   -8.2783    4.3325 C   0  0  0  0  0  0  0  0  0  0  0  0
   19.2766   -6.4814    2.0213 F   0  0  0  0  0  0  0  0  0  0  0  0
   20.9083   -7.2673    3.5206 C   0  0  0  0  0  0  0  0  0  0  0  0
   21.5540   -6.1063    3.4460 F   0  0  0  0  0  0  0  0  0  0  0  0
   16.1009  -14.2856    7.0492 H   0  0  0  0  0  0  0  0  0  0  0  0
   16.0022  -15.1068    2.3176 H   0  0  0  0  0  0  0  0  0  0  0  0
   15.0970  -13.0745    3.2095 H   0  0  0  0  0  0  0  0  0  0  0  0
   14.3010  -13.0037    7.5625 H   0  0  0  0  0  0  0  0  0  0  0  0
   13.2419  -13.2489    6.3439 H   0  0  0  0  0  0  0  0  0  0  0  0
   14.4456  -11.9362    3.7649 H   0  0  0  0  0  0  0  0  0  0  0  0
   14.8211  -10.5539    4.5490 H   0  0  0  0  0  0  0  0  0  0  0  0
   16.2368  -11.7807    7.3207 H   0  0  0  0  0  0  0  0  0  0  0  0
   15.8409  -10.4774    6.4200 H   0  0  0  0  0  0  0  0  0  0  0  0
   13.6593  -10.8203    7.8078 H   0  0  0  0  0  0  0  0  0  0  0  0
   12.2686  -11.6675    7.6868 H   0  0  0  0  0  0  0  0  0  0  0  0
   12.3396  -12.0017    4.7938 H   0  0  0  0  0  0  0  0  0  0  0  0
   12.5224  -10.5262    4.1186 H   0  0  0  0  0  0  0  0  0  0  0  0
   17.9594  -12.3440    5.8360 H   0  0  0  0  0  0  0  0  0  0  0  0
   18.5843  -11.3081    2.8337 H   0  0  0  0  0  0  0  0  0  0  0  0
   19.4073  -11.6860    4.1925 H   0  0  0  0  0  0  0  0  0  0  0  0
   18.2175   -8.8144    2.3373 H   0  0  0  0  0  0  0  0  0  0  0  0
   21.0837  -10.2254    4.9864 H   0  0  0  0  0  0  0  0  0  0  0  0
   22.2516   -8.1358    4.8565 H   0  0  0  0  0  0  0  0  0  0  0  0
  1  2  1  0  0  0  0
  2  3  2  0  0  0  0
  2  4  1  0  0  0  0
  3  5  1  0  0  0  0
  3  6  1  0  0  0  0
  4  7  2  0  0  0  0
  6  8  2  0  0  0  0
  7  9  1  0  0  0  0
  9 10  1  0  0  0  0
  9 11  1  0  0  0  0
  9 12  1  0  0  0  0
 10 13  1  0  0  0  0
 11 14  1  0  0  0  0
 12 15  1  0  0  0  0
 13 16  1  0  0  0  0
 15 17  1  0  0  0  0
 17 18  2  0  0  0  0
 17 19  1  0  0  0  0
 19 20  1  0  0  0  0
 20 21  2  0  0  0  0
 20 22  1  0  0  0  0
 21 23  1  0  0  0  0
 22 24  2  0  0  0  0
 23 25  1  0  0  0  0
 23 26  2  0  0  0  0
 26 27  1  0  0  0  0
  7  8  1  0  0  0  0
 14 16  1  0  0  0  0
 24 26  1  0  0  0  0
  4 28  1  0  0  0  0
  6 29  1  0  0  0  0
  8 30  1  0  0  0  0
 10 31  1  0  0  0  0
 10 32  1  0  0  0  0
 11 33  1  0  0  0  0
 11 34  1  0  0  0  0
 12 35  1  0  0  0  0
 12 36  1  0  0  0  0
 13 37  1  0  0  0  0
 13 38  1  0  0  0  0
 14 39  1  0  0  0  0
 14 40  1  0  0  0  0
 15 41  1  0  0  0  0
 19 42  1  0  0  0  0
 19 43  1  0  0  0  0
 21 44  1  0  0  0  0
 22 45  1  0  0  0  0
 24 46  1  0  0  0  0
M  END
> <BIOSOLVEIT.HYDE_ESTIMATED_AFFINITY_LOWER_BOUNDARY [nM]>
4002229.395072

> <BIOSOLVEIT.HYDE_ESTIMATED_AFFINITY_UPPER_BOUNDARY [nM]>
397645153.453317

> <BIOSOLVEIT.HYDE_LIGAND_EFFICIENCY range: ++, +, 0, -, -->
--

> <BIOSOLVEIT.HYDE_LIGAND_LIPOPHILIC_EFFICIENCY range: ++, +, 0, -, -->
--

> <BIOSOLVEIT.INTER_CLASH range: red, yellow, green>
green

> <BIOSOLVEIT.INTRA_CLASH range: red, yellow, green>
yellow

> <BIOSOLVEIT.LOGP>
4.6787

> <BIOSOLVEIT.MOLECULAR WEIGHT>
414.277

> <BIOSOLVEIT.MOLECULE_CHECKSUM>
LTcuOTg2MDg7MC4yOTU3ODE=

> <BIOSOLVEIT.TORSION_QUALITY range: red, yellow, green, not rotatable>
green

> <BIOSOLVEIT.TPSA>
38.33

> <BIOSOLVEIT.SEESAR_FAVORITE>
favorite

> <smc_score>
0.75

> <QED_score>
0.772

> <distance>
0.652

> <SimilarityPheSA_1>
0.669

> <Smiles>
O=C(Cc1ccc(F)c(F)c1)NCC1(c2ccc(Cl)c(Cl)c2)CCOCC1

> <Similarity_SkelSpheres>
0.661

> <Cluster No>
33.0

> <QueryID>
ADA-UCB-6c2cb422-1

> <SimilarityPheSA>
0.6694

> <Postera series>
3-aminopyridine-like

> <PDB_code>
Mpro-x10959

> <Approach>
DGM_exploratory_RL

> <ID>
20210628_82

> <SimilarityPheSA_2>
0.697

> <OPTIBRIUM.logD>
4.5828

> <OPTIBRIUM.BBB category>
+

> <OPTIBRIUM.logP>
4.5828

> <OPTIBRIUM.P-gp category>
no

> <OPTIBRIUM.logS>
-0.447257

> <OPTIBRIUM.HIA category>
+

> <OPTIBRIUM.PPB90 category>
high

> <OPTIBRIUM.2D6 affinity category>
medium

> <OPTIBRIUM.hERG pIC50>
5.14607

> <OPTIBRIUM.2C9 pKi>
5.75004

> <OPTIBRIUM.BBB log([brain]:[blood])>
0.00570309

> <OPTIBRIUM.logS @ pH7.4>
-0.447257

$$$$
Compound 822_1_2
haSeeSAR  07122114523D 1   1.00000     0.00000     0
SeeSAR 11.0.2 hazemaj
 36 37  0  0  0  0            999 V2000
   20.5992   -6.1168    3.2718 Cl  0  0  0  0  0  0  0  0  0  0  0  0
   20.6402   -7.8961    3.3154 C   0  0  0  0  0  0  0  0  0  0  0  0
   21.7685   -8.5544    3.7928 C   0  0  0  0  0  0  0  0  0  0  0  0
   19.5371   -8.6158    2.8708 C   0  0  0  0  0  0  0  0  0  0  0  0
   23.1680   -7.6094    4.3552 Cl  0  0  0  0  0  0  0  0  0  0  0  0
   21.8105   -9.9445    3.8328 C   0  0  0  0  0  0  0  0  0  0  0  0
   19.5849  -10.0047    2.9125 C   0  0  0  0  0  0  0  0  0  0  0  0
   20.7100  -10.6696    3.3881 C   0  0  0  0  0  0  0  0  0  0  0  0
   18.3878  -10.8077    2.4310 C   0  0  0  0  0  0  0  0  0  0  0  0
   17.9305  -11.6985    3.5072 N   0  0  0  0  0  0  0  0  0  0  0  0
   16.9617  -11.2775    4.3797 C   0  0  0  0  0  0  0  0  0  0  0  0
   16.4865  -10.1815    4.2653 O   0  0  0  0  0  0  0  0  0  0  0  0
   16.5354  -12.1077    5.3826 N   0  0  0  0  0  0  0  0  0  0  0  0
   15.4959  -11.6559    6.3188 C   0  0  0  0  0  0  0  0  0  0  0  0
   14.1611  -12.2740    5.9310 C   0  0  1  0  0  0  0  0  0  0  0  0
   13.4593  -12.8668    7.0238 O   0  0  0  0  0  0  0  0  0  0  0  0
   13.2006  -11.2570    5.3225 C   0  0  0  0  0  0  0  0  0  0  0  0
   13.1899  -11.9766    8.1026 C   0  0  0  0  0  0  0  0  0  0  0  0
   12.4407  -10.5506    6.3039 O   0  0  0  0  0  0  0  0  0  0  0  0
   13.0043  -10.5489    7.6087 C   0  0  0  0  0  0  0  0  0  0  0  0
   18.7251   -8.1438    2.5277 H   0  0  0  0  0  0  0  0  0  0  0  0
   22.6220  -10.4166    4.1770 H   0  0  0  0  0  0  0  0  0  0  0  0
   20.7277  -11.6691    3.4105 H   0  0  0  0  0  0  0  0  0  0  0  0
   18.6509  -11.3537    1.6356 H   0  0  0  0  0  0  0  0  0  0  0  0
   17.6483  -10.1841    2.1776 H   0  0  0  0  0  0  0  0  0  0  0  0
   18.3265  -12.6119    3.6025 H   0  0  0  0  0  0  0  0  0  0  0  0
   16.9314  -13.0210    5.4778 H   0  0  0  0  0  0  0  0  0  0  0  0
   15.4249  -10.6591    6.2823 H   0  0  0  0  0  0  0  0  0  0  0  0
   15.7374  -11.9392    7.2469 H   0  0  0  0  0  0  0  0  0  0  0  0
   14.3338  -12.9852    5.2496 H   0  0  0  0  0  0  0  0  0  0  0  0
   12.5682  -11.7392    4.7161 H   0  0  0  0  0  0  0  0  0  0  0  0
   13.7309  -10.5951    4.7928 H   0  0  0  0  0  0  0  0  0  0  0  0
   13.9560  -12.0020    8.7448 H   0  0  0  0  0  0  0  0  0  0  0  0
   12.3551  -12.2715    8.5675 H   0  0  0  0  0  0  0  0  0  0  0  0
   13.8922  -10.0896    7.5846 H   0  0  0  0  0  0  0  0  0  0  0  0
   12.3932  -10.0607    8.2319 H   0  0  0  0  0  0  0  0  0  0  0  0
  1  2  1  0  0  0  0
  2  3  2  0  0  0  0
  2  4  1  0  0  0  0
  3  5  1  0  0  0  0
  3  6  1  0  0  0  0
  4  7  2  0  0  0  0
  6  8  2  0  0  0  0
  7  9  1  0  0  0  0
  9 10  1  0  0  0  0
 10 11  1  0  0  0  0
 11 12  2  0  0  0  0
 11 13  1  0  0  0  0
 13 14  1  0  0  0  0
 14 15  1  0  0  0  0
 15 16  1  0  0  0  0
 15 17  1  0  0  0  0
 16 18  1  0  0  0  0
 17 19  1  0  0  0  0
 18 20  1  0  0  0  0
  7  8  1  0  0  0  0
 19 20  1  0  0  0  0
  4 21  1  0  0  0  0
  6 22  1  0  0  0  0
  8 23  1  0  0  0  0
  9 24  1  0  0  0  0
  9 25  1  0  0  0  0
 10 26  1  0  0  0  0
 13 27  1  0  0  0  0
 14 28  1  0  0  0  0
 14 29  1  0  0  0  0
 15 30  1  0  0  0  0
 17 31  1  0  0  0  0
 17 32  1  0  0  0  0
 18 33  1  0  0  0  0
 18 34  1  0  0  0  0
 20 35  1  0  0  0  0
 20 36  1  0  0  0  0
M  END
> <BIOSOLVEIT.HYDE_ESTIMATED_AFFINITY_LOWER_BOUNDARY [nM]>
35925694.556511

> <BIOSOLVEIT.HYDE_ESTIMATED_AFFINITY_UPPER_BOUNDARY [nM]>
3569430163.705945

> <BIOSOLVEIT.HYDE_LIGAND_EFFICIENCY range: ++, +, 0, -, -->
--

> <BIOSOLVEIT.HYDE_LIGAND_LIPOPHILIC_EFFICIENCY range: ++, +, 0, -, -->
--

> <BIOSOLVEIT.INTER_CLASH range: red, yellow, green>
green

> <BIOSOLVEIT.INTRA_CLASH range: red, yellow, green>
yellow

> <BIOSOLVEIT.LOGP>
2.208

> <BIOSOLVEIT.MOLECULAR WEIGHT>
319.186

> <BIOSOLVEIT.MOLECULE_CHECKSUM>
LTIuNTQ1NzY7MC4xMjcyODg=

> <BIOSOLVEIT.TORSION_QUALITY range: red, yellow, green, not rotatable>
yellow

> <BIOSOLVEIT.TPSA>
59.59

> <BIOSOLVEIT.SEESAR_FAVORITE>
favorite

> <smc_score>
0.563

> <QED_score>
0.894

> <distance>
0.683

> <SimilarityPheSA_1>
0.67

> <Smiles>
O=C(NCc1ccc(Cl)c(Cl)c1)NCC1COCCO1

> <Similarity_SkelSpheres>
0.632

> <Cluster No>
40.0

> <QueryID>
MAT-POS-199e2e7c-1

> <SimilarityPheSA>
0.6702

> <Postera series>
3-aminopyridine-like

> <PDB_code>
Mpro-x12000

> <Approach>
DGM_exploratory_RL

> <ID>
20210628_92

> <SimilarityPheSA_2>
0.683

> <OPTIBRIUM.logD>
2.20254

> <OPTIBRIUM.BBB category>
-

> <OPTIBRIUM.logP>
2.20254

> <OPTIBRIUM.P-gp category>
no

> <OPTIBRIUM.logS>
2.51363

> <OPTIBRIUM.HIA category>
+

> <OPTIBRIUM.PPB90 category>
low

> <OPTIBRIUM.2D6 affinity category>
high

> <OPTIBRIUM.hERG pIC50>
4.15125

> <OPTIBRIUM.2C9 pKi>
4.3202

> <OPTIBRIUM.BBB log([brain]:[blood])>
-0.560436

> <OPTIBRIUM.logS @ pH7.4>
2.51363

$$$$
Compound 822_1_7
haSeeSAR  07122114523D 1   1.00000     0.00000     0
SeeSAR 11.0.2 hazemaj
 36 37  0  0  0  0            999 V2000
   20.8646   -5.8090    3.2771 Cl  0  0  0  0  0  0  0  0  0  0  0  0
   20.9458   -7.5866    3.2458 C   0  0  0  0  0  0  0  0  0  0  0  0
   22.1161   -8.2301    3.6344 C   0  0  0  0  0  0  0  0  0  0  0  0
   19.8406   -8.3233    2.8343 C   0  0  0  0  0  0  0  0  0  0  0  0
   23.5241   -7.2758    4.1600 Cl  0  0  0  0  0  0  0  0  0  0  0  0
   22.2010   -9.6185    3.6166 C   0  0  0  0  0  0  0  0  0  0  0  0
   19.9294   -9.7111    2.8184 C   0  0  0  0  0  0  0  0  0  0  0  0
   21.0976  -10.3595    3.2052 C   0  0  0  0  0  0  0  0  0  0  0  0
   18.7237  -10.5206    2.3689 C   0  0  0  0  0  0  0  0  0  0  0  0
   18.3224  -11.4400    3.4434 N   0  0  0  0  0  0  0  0  0  0  0  0
   17.3534  -11.0676    4.3372 C   0  0  0  0  0  0  0  0  0  0  0  0
   16.8319   -9.9909    4.2430 O   0  0  0  0  0  0  0  0  0  0  0  0
   16.9794  -11.9245    5.3387 N   0  0  0  0  0  0  0  0  0  0  0  0
   15.9395  -11.5249    6.2978 C   0  0  0  0  0  0  0  0  0  0  0  0
   14.5798  -11.5634    5.6169 C   0  0  1  0  0  0  0  0  0  0  0  0
   14.1382  -12.9049    5.4143 O   0  0  0  0  0  0  0  0  0  0  0  0
   13.5525  -10.7199    6.3572 C   0  0  0  0  0  0  0  0  0  0  0  0
   12.9327  -13.2265    6.0960 C   0  0  0  0  0  0  0  0  0  0  0  0
   12.2538  -10.8803    5.8023 O   0  0  0  0  0  0  0  0  0  0  0  0
   11.8551  -12.2385    5.6612 C   0  0  0  0  0  0  0  0  0  0  0  0
   18.9974   -7.8638    2.5551 H   0  0  0  0  0  0  0  0  0  0  0  0
   23.0441  -10.0780    3.8958 H   0  0  0  0  0  0  0  0  0  0  0  0
   21.1444  -11.3582    3.1876 H   0  0  0  0  0  0  0  0  0  0  0  0
   18.9609  -11.0461    1.5518 H   0  0  0  0  0  0  0  0  0  0  0  0
   17.9663   -9.9022    2.1592 H   0  0  0  0  0  0  0  0  0  0  0  0
   18.7569  -12.3373    3.5219 H   0  0  0  0  0  0  0  0  0  0  0  0
   17.4139  -12.8217    5.4173 H   0  0  0  0  0  0  0  0  0  0  0  0
   16.1238  -10.5970    6.6220 H   0  0  0  0  0  0  0  0  0  0  0  0
   15.9416  -12.1556    7.0738 H   0  0  0  0  0  0  0  0  0  0  0  0
   14.6953  -11.1545    4.7116 H   0  0  0  0  0  0  0  0  0  0  0  0
   13.8163   -9.7574    6.2954 H   0  0  0  0  0  0  0  0  0  0  0  0
   13.5330  -10.9993    7.3171 H   0  0  0  0  0  0  0  0  0  0  0  0
   13.0746  -13.1583    7.0835 H   0  0  0  0  0  0  0  0  0  0  0  0
   12.6511  -14.1573    5.8632 H   0  0  0  0  0  0  0  0  0  0  0  0
   11.0398  -12.3906    6.2198 H   0  0  0  0  0  0  0  0  0  0  0  0
   11.6371  -12.4080    4.7000 H   0  0  0  0  0  0  0  0  0  0  0  0
  1  2  1  0  0  0  0
  2  3  2  0  0  0  0
  2  4  1  0  0  0  0
  3  5  1  0  0  0  0
  3  6  1  0  0  0  0
  4  7  2  0  0  0  0
  6  8  2  0  0  0  0
  7  9  1  0  0  0  0
  9 10  1  0  0  0  0
 10 11  1  0  0  0  0
 11 12  2  0  0  0  0
 11 13  1  0  0  0  0
 13 14  1  0  0  0  0
 14 15  1  0  0  0  0
 15 16  1  0  0  0  0
 15 17  1  0  0  0  0
 16 18  1  0  0  0  0
 17 19  1  0  0  0  0
 18 20  1  0  0  0  0
  7  8  1  0  0  0  0
 19 20  1  0  0  0  0
  4 21  1  0  0  0  0
  6 22  1  0  0  0  0
  8 23  1  0  0  0  0
  9 24  1  0  0  0  0
  9 25  1  0  0  0  0
 10 26  1  0  0  0  0
 13 27  1  0  0  0  0
 14 28  1  0  0  0  0
 14 29  1  0  0  0  0
 15 30  1  0  0  0  0
 17 31  1  0  0  0  0
 17 32  1  0  0  0  0
 18 33  1  0  0  0  0
 18 34  1  0  0  0  0
 20 35  1  0  0  0  0
 20 36  1  0  0  0  0
M  END
> <BIOSOLVEIT.HYDE_ESTIMATED_AFFINITY_LOWER_BOUNDARY [nM]>
263836923.430436

> <BIOSOLVEIT.HYDE_ESTIMATED_AFFINITY_UPPER_BOUNDARY [nM]>
26213758270.159618

> <BIOSOLVEIT.HYDE_LIGAND_EFFICIENCY range: ++, +, 0, -, -->
--

> <BIOSOLVEIT.HYDE_LIGAND_LIPOPHILIC_EFFICIENCY range: ++, +, 0, -, -->
--

> <BIOSOLVEIT.INTER_CLASH range: red, yellow, green>
green

> <BIOSOLVEIT.INTRA_CLASH range: red, yellow, green>
green

> <BIOSOLVEIT.LOGP>
2.208

> <BIOSOLVEIT.MOLECULAR WEIGHT>
319.186

> <BIOSOLVEIT.MOLECULE_CHECKSUM>
Mi4zOTY5ODsw

> <BIOSOLVEIT.TORSION_QUALITY range: red, yellow, green, not rotatable>
green

> <BIOSOLVEIT.TPSA>
59.59

> <BIOSOLVEIT.SEESAR_FAVORITE>
favorite

> <smc_score>
0.563

> <QED_score>
0.894

> <distance>
0.683

> <SimilarityPheSA_1>
0.67

> <Smiles>
O=C(NCc1ccc(Cl)c(Cl)c1)NCC1COCCO1

> <Similarity_SkelSpheres>
0.632

> <Cluster No>
40.0

> <QueryID>
MAT-POS-199e2e7c-1

> <SimilarityPheSA>
0.6702

> <Postera series>
3-aminopyridine-like

> <PDB_code>
Mpro-x12000

> <Approach>
DGM_exploratory_RL

> <ID>
20210628_92

> <SimilarityPheSA_2>
0.683

> <OPTIBRIUM.logD>
2.20254

> <OPTIBRIUM.BBB category>
-

> <OPTIBRIUM.logP>
2.20254

> <OPTIBRIUM.P-gp category>
no

> <OPTIBRIUM.logS>
2.51363

> <OPTIBRIUM.HIA category>
+

> <OPTIBRIUM.PPB90 category>
low

> <OPTIBRIUM.2D6 affinity category>
high

> <OPTIBRIUM.hERG pIC50>
4.15125

> <OPTIBRIUM.2C9 pKi>
4.3202

> <OPTIBRIUM.BBB log([brain]:[blood])>
-0.560436

> <OPTIBRIUM.logS @ pH7.4>
2.51363

$$$$
Compound 849_1_3
haSeeSAR  07122114523D 1   1.00000     0.00000     0
SeeSAR 11.0.2 hazemaj
 40 41  0  0  0  0            999 V2000
   21.4987   -5.8766    3.4316 Cl  0  0  0  0  0  0  0  0  0  0  0  0
   20.7725   -7.4985    3.5274 C   0  0  0  0  0  0  0  0  0  0  0  0
   19.5799   -7.7661    2.8654 C   0  0  0  0  0  0  0  0  0  0  0  0
   21.4079   -8.4892    4.2675 C   0  0  0  0  0  0  0  0  0  0  0  0
   18.9876   -6.8055    2.1621 F   0  0  0  0  0  0  0  0  0  0  0  0
   18.9968   -9.0265    2.9288 C   0  0  0  0  0  0  0  0  0  0  0  0
   20.8271   -9.7509    4.3324 C   0  0  0  0  0  0  0  0  0  0  0  0
   19.6341  -10.0150    3.6702 C   0  0  0  0  0  0  0  0  0  0  0  0
   21.6251  -11.0333    5.2737 Cl  0  0  0  0  0  0  0  0  0  0  0  0
   19.0858  -11.2457    3.7463 O   0  0  0  0  0  0  0  0  0  0  0  0
   17.6790  -11.4043    3.6348 C   0  0  0  0  0  0  0  0  0  0  0  0
   17.0450  -11.2834    5.0110 C   0  0  0  0  0  0  0  0  0  0  0  0
   16.0949  -10.5205    5.1861 O   0  0  0  0  0  0  0  0  0  0  0  0
   17.5143  -11.9981    6.0206 N   0  0  0  0  0  0  0  0  0  0  0  0
   16.9012  -11.8811    7.3516 C   0  0  0  0  0  0  0  0  0  0  0  0
   15.6333  -12.7181    7.4006 C   0  0  0  0  0  0  0  0  0  0  0  0
   14.4760  -11.8767    7.0523 N   0  3  0  0  0  0  0  0  0  0  0  0
   13.6169  -12.6463    6.1410 C   0  0  0  0  0  0  0  0  0  0  0  0
   13.7282  -11.4947    8.2594 C   0  0  0  0  0  0  0  0  0  0  0  0
   12.2385  -12.0085    6.0622 C   0  0  0  0  0  0  0  0  0  0  0  0
   12.6236  -10.5270    7.8588 C   0  0  0  0  0  0  0  0  0  0  0  0
   12.2794  -10.6516    6.4839 O   0  0  0  0  0  0  0  0  0  0  0  0
   22.2660   -8.2981    4.7441 H   0  0  0  0  0  0  0  0  0  0  0  0
   18.1387   -9.2177    2.4522 H   0  0  0  0  0  0  0  0  0  0  0  0
   17.4745  -12.3050    3.2515 H   0  0  0  0  0  0  0  0  0  0  0  0
   17.3101  -10.6949    3.0344 H   0  0  0  0  0  0  0  0  0  0  0  0
   18.2861  -12.6179    5.8784 H   0  0  0  0  0  0  0  0  0  0  0  0
   16.6758  -10.9237    7.5318 H   0  0  0  0  0  0  0  0  0  0  0  0
   17.5436  -12.2085    8.0444 H   0  0  0  0  0  0  0  0  0  0  0  0
   15.5123  -13.0863    8.3225 H   0  0  0  0  0  0  0  0  0  0  0  0
   15.7059  -13.4719    6.7475 H   0  0  0  0  0  0  0  0  0  0  0  0
   13.5296  -13.5829    6.4803 H   0  0  0  0  0  0  0  0  0  0  0  0
   14.0285  -12.6589    5.2296 H   0  0  0  0  0  0  0  0  0  0  0  0
   14.3439  -11.0521    8.9114 H   0  0  0  0  0  0  0  0  0  0  0  0
   13.3273  -12.3089    8.6795 H   0  0  0  0  0  0  0  0  0  0  0  0
   11.6097  -12.5153    6.6520 H   0  0  0  0  0  0  0  0  0  0  0  0
   11.9138  -12.0476    5.1172 H   0  0  0  0  0  0  0  0  0  0  0  0
   12.9350   -9.5924    8.0303 H   0  0  0  0  0  0  0  0  0  0  0  0
   11.8127  -10.7153    8.4129 H   0  0  0  0  0  0  0  0  0  0  0  0
   14.7957  -11.0514    6.5868 H   0  0  0  0  0  0  0  0  0  0  0  0
  1  2  1  0  0  0  0
  2  3  2  0  0  0  0
  2  4  1  0  0  0  0
  3  5  1  0  0  0  0
  3  6  1  0  0  0  0
  4  7  2  0  0  0  0
  6  8  2  0  0  0  0
  7  9  1  0  0  0  0
  8 10  1  0  0  0  0
 10 11  1  0  0  0  0
 11 12  1  0  0  0  0
 12 13  2  0  0  0  0
 12 14  1  0  0  0  0
 14 15  1  0  0  0  0
 15 16  1  0  0  0  0
 16 17  1  0  0  0  0
 17 18  1  0  0  0  0
 17 19  1  0  0  0  0
 18 20  1  0  0  0  0
 19 21  1  0  0  0  0
 20 22  1  0  0  0  0
  7  8  1  0  0  0  0
 21 22  1  0  0  0  0
  4 23  1  0  0  0  0
  6 24  1  0  0  0  0
 11 25  1  0  0  0  0
 11 26  1  0  0  0  0
 14 27  1  0  0  0  0
 15 28  1  0  0  0  0
 15 29  1  0  0  0  0
 16 30  1  0  0  0  0
 16 31  1  0  0  0  0
 18 32  1  0  0  0  0
 18 33  1  0  0  0  0
 19 34  1  0  0  0  0
 19 35  1  0  0  0  0
 20 36  1  0  0  0  0
 20 37  1  0  0  0  0
 21 38  1  0  0  0  0
 21 39  1  0  0  0  0
 17 40  1  0  0  0  0
M  CHG  1  17   1
M  END
> <BIOSOLVEIT.HYDE_ESTIMATED_AFFINITY_LOWER_BOUNDARY [nM]>
49568950.837398

> <BIOSOLVEIT.HYDE_ESTIMATED_AFFINITY_UPPER_BOUNDARY [nM]>
4924968340.527098

> <BIOSOLVEIT.HYDE_LIGAND_EFFICIENCY range: ++, +, 0, -, -->
--

> <BIOSOLVEIT.HYDE_LIGAND_LIPOPHILIC_EFFICIENCY range: ++, +, 0, -, -->
--

> <BIOSOLVEIT.INTER_CLASH range: red, yellow, green>
green

> <BIOSOLVEIT.INTRA_CLASH range: red, yellow, green>
green

> <BIOSOLVEIT.LOGP>
0.5426

> <BIOSOLVEIT.MOLECULAR WEIGHT>
352.211

> <BIOSOLVEIT.MOLECULE_CHECKSUM>
LTEuNzQ3NzU7MC4wNzk0NDM0

> <BIOSOLVEIT.TORSION_QUALITY range: red, yellow, green, not rotatable>
red

> <BIOSOLVEIT.TPSA>
52

> <BIOSOLVEIT.SEESAR_FAVORITE>
favorite

> <smc_score>
0.688

> <QED_score>
0.797

> <distance>
0.729

> <SimilarityPheSA_1>
0.637

> <Smiles>
O=C(COc1cc(F)c(Cl)cc1Cl)NCCN1CCOCC1

> <Similarity_SkelSpheres>
0.607

> <Cluster No>
49.0

> <QueryID>
JAN-GHE-5a013bed-2

> <SimilarityPheSA>
0.6371

> <Postera series>
3-aminopyridine-like

> <PDB_code>
Mpro-x10466

> <Approach>
DGM_exploratory_RL

> <ID>
20210628_119

> <SimilarityPheSA_2>
0.67

> <OPTIBRIUM.logD>
1.79156

> <OPTIBRIUM.BBB category>
+

> <OPTIBRIUM.logP>
2.29086

> <OPTIBRIUM.P-gp category>
no

> <OPTIBRIUM.logS>
3.15182

> <OPTIBRIUM.HIA category>
+

> <OPTIBRIUM.PPB90 category>
low

> <OPTIBRIUM.2D6 affinity category>
medium

> <OPTIBRIUM.hERG pIC50>
5.00529

> <OPTIBRIUM.2C9 pKi>
4.31677

> <OPTIBRIUM.BBB log([brain]:[blood])>
-0.0611132

> <OPTIBRIUM.logS @ pH7.4>
2.22118

$$$$
Compound 849_1_4
haSeeSAR  07122114523D 1   1.00000     0.00000     0
SeeSAR 11.0.2 hazemaj
 40 41  0  0  0  0            999 V2000
   21.4961   -5.8774    3.4302 Cl  0  0  0  0  0  0  0  0  0  0  0  0
   20.7740   -7.5008    3.5315 C   0  0  0  0  0  0  0  0  0  0  0  0
   19.5811   -7.7731    2.8717 C   0  0  0  0  0  0  0  0  0  0  0  0
   21.4127   -8.4879    4.2736 C   0  0  0  0  0  0  0  0  0  0  0  0
   18.9856   -6.8161    2.1665 F   0  0  0  0  0  0  0  0  0  0  0  0
   19.0012   -9.0348    2.9394 C   0  0  0  0  0  0  0  0  0  0  0  0
   20.8350   -9.7508    4.3427 C   0  0  0  0  0  0  0  0  0  0  0  0
   19.6419  -10.0197    3.6829 C   0  0  0  0  0  0  0  0  0  0  0  0
   21.6373  -11.0286    5.2867 Cl  0  0  0  0  0  0  0  0  0  0  0  0
   19.0967  -11.2515    3.7631 O   0  0  0  0  0  0  0  0  0  0  0  0
   17.6902  -11.4140    3.6522 C   0  0  0  0  0  0  0  0  0  0  0  0
   17.0552  -11.2829    5.0270 C   0  0  0  0  0  0  0  0  0  0  0  0
   16.1020  -10.5222    5.1947 O   0  0  0  0  0  0  0  0  0  0  0  0
   17.5269  -11.9863    6.0433 N   0  0  0  0  0  0  0  0  0  0  0  0
   16.9128  -11.8595    7.3729 C   0  0  0  0  0  0  0  0  0  0  0  0
   15.6483  -12.7011    7.4292 C   0  0  0  0  0  0  0  0  0  0  0  0
   14.4873  -11.8668    7.0758 N   0  3  0  0  0  0  0  0  0  0  0  0
   13.7306  -11.4750    8.2753 C   0  0  0  0  0  0  0  0  0  0  0  0
   13.6182  -12.6543    6.1894 C   0  0  0  0  0  0  0  0  0  0  0  0
   12.6026  -10.5361    7.8751 C   0  0  0  0  0  0  0  0  0  0  0  0
   12.2535  -11.9960    6.0531 C   0  0  0  0  0  0  0  0  0  0  0  0
   12.2818  -10.6440    6.4938 O   0  0  0  0  0  0  0  0  0  0  0  0
   22.2709   -8.2933    4.7485 H   0  0  0  0  0  0  0  0  0  0  0  0
   18.1430   -9.2295    2.4645 H   0  0  0  0  0  0  0  0  0  0  0  0
   17.4879  -12.3183    3.2763 H   0  0  0  0  0  0  0  0  0  0  0  0
   17.3202  -10.7104    3.0456 H   0  0  0  0  0  0  0  0  0  0  0  0
   18.3013  -12.6043    5.9071 H   0  0  0  0  0  0  0  0  0  0  0  0
   16.6835  -10.9014    7.5442 H   0  0  0  0  0  0  0  0  0  0  0  0
   17.5563  -12.1779    8.0690 H   0  0  0  0  0  0  0  0  0  0  0  0
   15.5296  -13.0630    8.3538 H   0  0  0  0  0  0  0  0  0  0  0  0
   15.7233  -13.4593    6.7816 H   0  0  0  0  0  0  0  0  0  0  0  0
   14.3401  -11.0098    8.9175 H   0  0  0  0  0  0  0  0  0  0  0  0
   13.3481  -12.2903    8.7099 H   0  0  0  0  0  0  0  0  0  0  0  0
   13.5038  -13.5712    6.5715 H   0  0  0  0  0  0  0  0  0  0  0  0
   14.0430  -12.7198    5.2865 H   0  0  0  0  0  0  0  0  0  0  0  0
   12.8816   -9.5957    8.0689 H   0  0  0  0  0  0  0  0  0  0  0  0
   11.7901  -10.7604    8.4133 H   0  0  0  0  0  0  0  0  0  0  0  0
   11.5911  -12.5038    6.6038 H   0  0  0  0  0  0  0  0  0  0  0  0
   11.9759  -12.0191    5.0926 H   0  0  0  0  0  0  0  0  0  0  0  0
   14.7992  -11.0471    6.5954 H   0  0  0  0  0  0  0  0  0  0  0  0
  1  2  1  0  0  0  0
  2  3  2  0  0  0  0
  2  4  1  0  0  0  0
  3  5  1  0  0  0  0
  3  6  1  0  0  0  0
  4  7  2  0  0  0  0
  6  8  2  0  0  0  0
  7  9  1  0  0  0  0
  8 10  1  0  0  0  0
 10 11  1  0  0  0  0
 11 12  1  0  0  0  0
 12 13  2  0  0  0  0
 12 14  1  0  0  0  0
 14 15  1  0  0  0  0
 15 16  1  0  0  0  0
 16 17  1  0  0  0  0
 17 18  1  0  0  0  0
 17 19  1  0  0  0  0
 18 20  1  0  0  0  0
 19 21  1  0  0  0  0
 20 22  1  0  0  0  0
  7  8  1  0  0  0  0
 21 22  1  0  0  0  0
  4 23  1  0  0  0  0
  6 24  1  0  0  0  0
 11 25  1  0  0  0  0
 11 26  1  0  0  0  0
 14 27  1  0  0  0  0
 15 28  1  0  0  0  0
 15 29  1  0  0  0  0
 16 30  1  0  0  0  0
 16 31  1  0  0  0  0
 18 32  1  0  0  0  0
 18 33  1  0  0  0  0
 19 34  1  0  0  0  0
 19 35  1  0  0  0  0
 20 36  1  0  0  0  0
 20 37  1  0  0  0  0
 21 38  1  0  0  0  0
 21 39  1  0  0  0  0
 17 40  1  0  0  0  0
M  CHG  1  17   1
M  END
> <BIOSOLVEIT.HYDE_ESTIMATED_AFFINITY_LOWER_BOUNDARY [nM]>
45039618.637026

> <BIOSOLVEIT.HYDE_ESTIMATED_AFFINITY_UPPER_BOUNDARY [nM]>
4474952406.888872

> <BIOSOLVEIT.HYDE_LIGAND_EFFICIENCY range: ++, +, 0, -, -->
--

> <BIOSOLVEIT.HYDE_LIGAND_LIPOPHILIC_EFFICIENCY range: ++, +, 0, -, -->
--

> <BIOSOLVEIT.INTER_CLASH range: red, yellow, green>
green

> <BIOSOLVEIT.INTRA_CLASH range: red, yellow, green>
green

> <BIOSOLVEIT.LOGP>
0.5426

> <BIOSOLVEIT.MOLECULAR WEIGHT>
352.211

> <BIOSOLVEIT.MOLECULE_CHECKSUM>
LTEuOTg1Mjk7MC4wOTAyNDA2

> <BIOSOLVEIT.TORSION_QUALITY range: red, yellow, green, not rotatable>
red

> <BIOSOLVEIT.TPSA>
52

> <BIOSOLVEIT.SEESAR_FAVORITE>
favorite

> <smc_score>
0.688

> <QED_score>
0.797

> <distance>
0.729

> <SimilarityPheSA_1>
0.637

> <Smiles>
O=C(COc1cc(F)c(Cl)cc1Cl)NCCN1CCOCC1

> <Similarity_SkelSpheres>
0.607

> <Cluster No>
49.0

> <QueryID>
JAN-GHE-5a013bed-2

> <SimilarityPheSA>
0.6371

> <Postera series>
3-aminopyridine-like

> <PDB_code>
Mpro-x10466

> <Approach>
DGM_exploratory_RL

> <ID>
20210628_119

> <SimilarityPheSA_2>
0.67

> <OPTIBRIUM.logD>
1.79156

> <OPTIBRIUM.BBB category>
+

> <OPTIBRIUM.logP>
2.29086

> <OPTIBRIUM.P-gp category>
no

> <OPTIBRIUM.logS>
3.15182

> <OPTIBRIUM.HIA category>
+

> <OPTIBRIUM.PPB90 category>
low

> <OPTIBRIUM.2D6 affinity category>
medium

> <OPTIBRIUM.hERG pIC50>
5.00529

> <OPTIBRIUM.2C9 pKi>
4.31677

> <OPTIBRIUM.BBB log([brain]:[blood])>
-0.0611132

> <OPTIBRIUM.logS @ pH7.4>
2.22118

$$$$
Compound 876_1_1
haSeeSAR  07122114523D 1   1.00000     0.00000     0
SeeSAR 11.0.2 hazemaj
 40 41  0  0  0  0            999 V2000
   21.1088   -5.7859    3.3604 Cl  0  0  0  0  0  0  0  0  0  0  0  0
   21.1717   -7.5620    3.4682 C   0  0  0  0  0  0  0  0  0  0  0  0
   22.3680   -8.1977    3.7822 C   0  0  0  0  0  0  0  0  0  0  0  0
   20.0173   -8.3015    3.2380 C   0  0  0  0  0  0  0  0  0  0  0  0
   23.8320   -7.2278    4.0714 Cl  0  0  0  0  0  0  0  0  0  0  0  0
   22.4280   -9.5850    3.8706 C   0  0  0  0  0  0  0  0  0  0  0  0
   20.0831   -9.6873    3.3273 C   0  0  0  0  0  0  0  0  0  0  0  0
   21.2762  -10.3298    3.6402 C   0  0  0  0  0  0  0  0  0  0  0  0
   18.8309  -10.5118    3.0793 C   0  0  0  0  0  0  0  0  0  0  0  0
   17.9460  -10.4732    4.3146 C   0  0  0  0  0  0  0  0  0  0  0  0
   16.8075  -10.0106    4.2420 O   0  0  0  0  0  0  0  0  0  0  0  0
   18.3994  -10.9367    5.4678 N   0  0  0  0  0  0  0  0  0  0  0  0
   17.5436  -10.8993    6.6625 C   0  0  0  0  0  0  0  0  0  0  0  0
   16.5919  -12.0843    6.6412 C   0  0  0  0  0  0  0  0  0  0  0  0
   15.6341  -11.9862    7.8174 C   0  0  0  0  0  0  0  0  0  0  0  0
   16.0728  -11.9519    8.9671 O   0  0  0  0  0  0  0  0  0  0  0  0
   14.2533  -11.9347    7.5932 N   0  0  0  0  0  0  0  0  0  0  0  0
   13.3063  -11.4155    8.5861 C   0  0  0  0  0  0  0  0  0  0  0  0
   13.6060  -12.3865    6.3612 C   0  0  0  0  0  0  0  0  0  0  0  0
   12.2146  -10.7144    7.7948 C   0  0  0  0  0  0  0  0  0  0  0  0
   13.1601  -11.1052    5.6744 C   0  0  0  0  0  0  0  0  0  0  0  0
   12.7651  -10.1248    6.6252 O   0  0  0  0  0  0  0  0  0  0  0  0
   19.1563   -7.8455    3.0126 H   0  0  0  0  0  0  0  0  0  0  0  0
   23.2887  -10.0409    4.0971 H   0  0  0  0  0  0  0  0  0  0  0  0
   21.3060  -11.3276    3.6995 H   0  0  0  0  0  0  0  0  0  0  0  0
   19.0882  -11.4579    2.8830 H   0  0  0  0  0  0  0  0  0  0  0  0
   18.3317  -10.1335    2.2997 H   0  0  0  0  0  0  0  0  0  0  0  0
   19.3243  -11.3124    5.5269 H   0  0  0  0  0  0  0  0  0  0  0  0
   17.0172  -10.0492    6.6690 H   0  0  0  0  0  0  0  0  0  0  0  0
   18.1140  -10.9446    7.4826 H   0  0  0  0  0  0  0  0  0  0  0  0
   17.1155  -12.9337    6.7078 H   0  0  0  0  0  0  0  0  0  0  0  0
   16.0723  -12.0793    5.7868 H   0  0  0  0  0  0  0  0  0  0  0  0
   13.7628  -10.7689    9.1971 H   0  0  0  0  0  0  0  0  0  0  0  0
   12.9196  -12.1653    9.1230 H   0  0  0  0  0  0  0  0  0  0  0  0
   12.8198  -12.9689    6.5679 H   0  0  0  0  0  0  0  0  0  0  0  0
   14.2515  -12.8894    5.7865 H   0  0  0  0  0  0  0  0  0  0  0  0
   11.8005  -10.0020    8.3612 H   0  0  0  0  0  0  0  0  0  0  0  0
   11.5159  -11.3801    7.5327 H   0  0  0  0  0  0  0  0  0  0  0  0
   12.3862  -11.3085    5.0746 H   0  0  0  0  0  0  0  0  0  0  0  0
   13.9182  -10.7455    5.1304 H   0  0  0  0  0  0  0  0  0  0  0  0
  1  2  1  0  0  0  0
  2  3  2  0  0  0  0
  2  4  1  0  0  0  0
  3  5  1  0  0  0  0
  3  6  1  0  0  0  0
  4  7  2  0  0  0  0
  6  8  2  0  0  0  0
  7  9  1  0  0  0  0
  9 10  1  0  0  0  0
 10 11  2  0  0  0  0
 10 12  1  0  0  0  0
 12 13  1  0  0  0  0
 13 14  1  0  0  0  0
 14 15  1  0  0  0  0
 15 16  2  0  0  0  0
 15 17  1  0  0  0  0
 17 18  1  0  0  0  0
 17 19  1  0  0  0  0
 18 20  1  0  0  0  0
 19 21  1  0  0  0  0
 20 22  1  0  0  0  0
  7  8  1  0  0  0  0
 21 22  1  0  0  0  0
  4 23  1  0  0  0  0
  6 24  1  0  0  0  0
  8 25  1  0  0  0  0
  9 26  1  0  0  0  0
  9 27  1  0  0  0  0
 12 28  1  0  0  0  0
 13 29  1  0  0  0  0
 13 30  1  0  0  0  0
 14 31  1  0  0  0  0
 14 32  1  0  0  0  0
 18 33  1  0  0  0  0
 18 34  1  0  0  0  0
 19 35  1  0  0  0  0
 19 36  1  0  0  0  0
 20 37  1  0  0  0  0
 20 38  1  0  0  0  0
 21 39  1  0  0  0  0
 21 40  1  0  0  0  0
M  END
> <BIOSOLVEIT.HYDE_ESTIMATED_AFFINITY_LOWER_BOUNDARY [nM]>
10696085.266109

> <BIOSOLVEIT.HYDE_ESTIMATED_AFFINITY_UPPER_BOUNDARY [nM]>
1062719311.448912

> <BIOSOLVEIT.HYDE_LIGAND_EFFICIENCY range: ++, +, 0, -, -->
--

> <BIOSOLVEIT.HYDE_LIGAND_LIPOPHILIC_EFFICIENCY range: ++, +, 0, -, -->
--

> <BIOSOLVEIT.INTER_CLASH range: red, yellow, green>
green

> <BIOSOLVEIT.INTRA_CLASH range: red, yellow, green>
green

> <BIOSOLVEIT.LOGP>
1.901

> <BIOSOLVEIT.MOLECULAR WEIGHT>
345.224

> <BIOSOLVEIT.MOLECULE_CHECKSUM>
LTUuNTQ5MjswLjI1MjIzNg==

> <BIOSOLVEIT.TORSION_QUALITY range: red, yellow, green, not rotatable>
green

> <BIOSOLVEIT.TPSA>
58.64

> <BIOSOLVEIT.SEESAR_FAVORITE>
favorite

> <smc_score>
0.563

> <QED_score>
0.887

> <distance>
0.607

> <SimilarityPheSA_1>
0.768

> <Smiles>
O=C(Cc1ccc(Cl)c(Cl)c1)NCCC(=O)N1CCOCC1

> <Similarity_SkelSpheres>
0.698

> <Cluster No>
61.0

> <QueryID>
JAN-GHE-5a013bed-2

> <SimilarityPheSA>
0.7676

> <Postera series>
3-aminopyridine-like

> <PDB_code>
Mpro-x10466

> <Approach>
DGM_exploratory_RL

> <ID>
20210628_146

> <SimilarityPheSA_2>
0.724

> <OPTIBRIUM.logD>
1.975

> <OPTIBRIUM.BBB category>
-

> <OPTIBRIUM.logP>
1.975

> <OPTIBRIUM.P-gp category>
no

> <OPTIBRIUM.logS>
3.69078

> <OPTIBRIUM.HIA category>
+

> <OPTIBRIUM.PPB90 category>
low

> <OPTIBRIUM.2D6 affinity category>
medium

> <OPTIBRIUM.hERG pIC50>
3.98474

> <OPTIBRIUM.2C9 pKi>
4.53955

> <OPTIBRIUM.BBB log([brain]:[blood])>
-0.463074

> <OPTIBRIUM.logS @ pH7.4>
3.69078

$$$$
Compound 876_1_2
haSeeSAR  07122114523D 1   1.00000     0.00000     0
SeeSAR 11.0.2 hazemaj
 40 41  0  0  0  0            999 V2000
   21.0992   -5.7953    3.3615 Cl  0  0  0  0  0  0  0  0  0  0  0  0
   21.1630   -7.5698    3.4898 C   0  0  0  0  0  0  0  0  0  0  0  0
   22.3613   -8.2018    3.8041 C   0  0  0  0  0  0  0  0  0  0  0  0
   20.0074   -8.3122    3.2752 C   0  0  0  0  0  0  0  0  0  0  0  0
   23.8269   -7.2284    4.0731 Cl  0  0  0  0  0  0  0  0  0  0  0  0
   22.4221   -9.5879    3.9085 C   0  0  0  0  0  0  0  0  0  0  0  0
   20.0740   -9.6969    3.3804 C   0  0  0  0  0  0  0  0  0  0  0  0
   21.2690  -10.3356    3.6936 C   0  0  0  0  0  0  0  0  0  0  0  0
   18.8204  -10.5243    3.1495 C   0  0  0  0  0  0  0  0  0  0  0  0
   17.9547  -10.4916    4.3984 C   0  0  0  0  0  0  0  0  0  0  0  0
   16.8087  -10.0458    4.3414 O   0  0  0  0  0  0  0  0  0  0  0  0
   18.4328  -10.9422    5.5468 N   0  0  0  0  0  0  0  0  0  0  0  0
   17.5955  -10.9105    6.7546 C   0  0  0  0  0  0  0  0  0  0  0  0
   16.7061  -12.1428    6.7869 C   0  0  0  0  0  0  0  0  0  0  0  0
   15.6472  -11.9752    7.8644 C   0  0  0  0  0  0  0  0  0  0  0  0
   15.9833  -11.8042    9.0363 O   0  0  0  0  0  0  0  0  0  0  0  0
   14.2899  -12.0154    7.5243 N   0  0  0  0  0  0  0  0  0  0  0  0
   13.2074  -11.6226    8.4318 C   0  0  0  0  0  0  0  0  0  0  0  0
   13.7978  -12.4393    6.2082 C   0  0  0  0  0  0  0  0  0  0  0  0
   12.5878  -10.3409    7.9050 C   0  0  0  0  0  0  0  0  0  0  0  0
   12.5378  -11.6325    5.9227 C   0  0  0  0  0  0  0  0  0  0  0  0
   12.6195  -10.3284    6.4825 O   0  0  0  0  0  0  0  0  0  0  0  0
   19.1450   -7.8590    3.0496 H   0  0  0  0  0  0  0  0  0  0  0  0
   23.2842  -10.0411    4.1351 H   0  0  0  0  0  0  0  0  0  0  0  0
   21.2994  -11.3326    3.7645 H   0  0  0  0  0  0  0  0  0  0  0  0
   19.0775  -11.4692    2.9468 H   0  0  0  0  0  0  0  0  0  0  0  0
   18.3082  -10.1454    2.3787 H   0  0  0  0  0  0  0  0  0  0  0  0
   19.3638  -11.3043    5.5931 H   0  0  0  0  0  0  0  0  0  0  0  0
   17.0260  -10.0886    6.7439 H   0  0  0  0  0  0  0  0  0  0  0  0
   18.1805  -10.9003    7.5655 H   0  0  0  0  0  0  0  0  0  0  0  0
   17.2616  -12.9496    6.9881 H   0  0  0  0  0  0  0  0  0  0  0  0
   16.2622  -12.2569    5.8982 H   0  0  0  0  0  0  0  0  0  0  0  0
   13.5740  -11.4690    9.3495 H   0  0  0  0  0  0  0  0  0  0  0  0
   12.5156  -12.3438    8.4656 H   0  0  0  0  0  0  0  0  0  0  0  0
   13.5848  -13.4163    6.2197 H   0  0  0  0  0  0  0  0  0  0  0  0
   14.4885  -12.2569    5.5083 H   0  0  0  0  0  0  0  0  0  0  0  0
   13.1025   -9.5575    8.2537 H   0  0  0  0  0  0  0  0  0  0  0  0
   11.6389  -10.2809    8.2149 H   0  0  0  0  0  0  0  0  0  0  0  0
   11.7511  -12.1073    6.3170 H   0  0  0  0  0  0  0  0  0  0  0  0
   12.4186  -11.5548    4.9328 H   0  0  0  0  0  0  0  0  0  0  0  0
  1  2  1  0  0  0  0
  2  3  2  0  0  0  0
  2  4  1  0  0  0  0
  3  5  1  0  0  0  0
  3  6  1  0  0  0  0
  4  7  2  0  0  0  0
  6  8  2  0  0  0  0
  7  9  1  0  0  0  0
  9 10  1  0  0  0  0
 10 11  2  0  0  0  0
 10 12  1  0  0  0  0
 12 13  1  0  0  0  0
 13 14  1  0  0  0  0
 14 15  1  0  0  0  0
 15 16  2  0  0  0  0
 15 17  1  0  0  0  0
 17 18  1  0  0  0  0
 17 19  1  0  0  0  0
 18 20  1  0  0  0  0
 19 21  1  0  0  0  0
 20 22  1  0  0  0  0
  7  8  1  0  0  0  0
 21 22  1  0  0  0  0
  4 23  1  0  0  0  0
  6 24  1  0  0  0  0
  8 25  1  0  0  0  0
  9 26  1  0  0  0  0
  9 27  1  0  0  0  0
 12 28  1  0  0  0  0
 13 29  1  0  0  0  0
 13 30  1  0  0  0  0
 14 31  1  0  0  0  0
 14 32  1  0  0  0  0
 18 33  1  0  0  0  0
 18 34  1  0  0  0  0
 19 35  1  0  0  0  0
 19 36  1  0  0  0  0
 20 37  1  0  0  0  0
 20 38  1  0  0  0  0
 21 39  1  0  0  0  0
 21 40  1  0  0  0  0
M  END
> <BIOSOLVEIT.HYDE_ESTIMATED_AFFINITY_LOWER_BOUNDARY [nM]>
15863986.584351

> <BIOSOLVEIT.HYDE_ESTIMATED_AFFINITY_UPPER_BOUNDARY [nM]>
1576180862.467043

> <BIOSOLVEIT.HYDE_LIGAND_EFFICIENCY range: ++, +, 0, -, -->
--

> <BIOSOLVEIT.HYDE_LIGAND_LIPOPHILIC_EFFICIENCY range: ++, +, 0, -, -->
--

> <BIOSOLVEIT.INTER_CLASH range: red, yellow, green>
green

> <BIOSOLVEIT.INTRA_CLASH range: red, yellow, green>
green

> <BIOSOLVEIT.LOGP>
1.901

> <BIOSOLVEIT.MOLECULAR WEIGHT>
345.224

> <BIOSOLVEIT.MOLECULE_CHECKSUM>
LTQuNTcyMDY7MC4yMDc4MjE=

> <BIOSOLVEIT.TORSION_QUALITY range: red, yellow, green, not rotatable>
green

> <BIOSOLVEIT.TPSA>
58.64

> <BIOSOLVEIT.SEESAR_FAVORITE>
favorite

> <smc_score>
0.563

> <QED_score>
0.887

> <distance>
0.607

> <SimilarityPheSA_1>
0.768

> <Smiles>
O=C(Cc1ccc(Cl)c(Cl)c1)NCCC(=O)N1CCOCC1

> <Similarity_SkelSpheres>
0.698

> <Cluster No>
61.0

> <QueryID>
JAN-GHE-5a013bed-2

> <SimilarityPheSA>
0.7676

> <Postera series>
3-aminopyridine-like

> <PDB_code>
Mpro-x10466

> <Approach>
DGM_exploratory_RL

> <ID>
20210628_146

> <SimilarityPheSA_2>
0.724

> <OPTIBRIUM.logD>
1.975

> <OPTIBRIUM.BBB category>
-

> <OPTIBRIUM.logP>
1.975

> <OPTIBRIUM.P-gp category>
no

> <OPTIBRIUM.logS>
3.69078

> <OPTIBRIUM.HIA category>
+

> <OPTIBRIUM.PPB90 category>
low

> <OPTIBRIUM.2D6 affinity category>
medium

> <OPTIBRIUM.hERG pIC50>
3.98474

> <OPTIBRIUM.2C9 pKi>
4.53955

> <OPTIBRIUM.BBB log([brain]:[blood])>
-0.463074

> <OPTIBRIUM.logS @ pH7.4>
3.69078

$$$$
Compound 878_1_2
haSeeSAR  07122114523D 1   1.00000     0.00000     0
SeeSAR 11.0.2 hazemaj
 46 48  0  0  0  0            999 V2000
   21.2608   -5.6436    3.4332 Cl  0  0  0  0  0  0  0  0  0  0  0  0
   21.2091   -7.4209    3.3570 C   0  0  0  0  0  0  0  0  0  0  0  0
   22.3697   -8.1545    3.5800 C   0  0  0  0  0  0  0  0  0  0  0  0
   20.0105   -8.0676    3.0759 C   0  0  0  0  0  0  0  0  0  0  0  0
   23.8977   -7.3149    3.9399 Cl  0  0  0  0  0  0  0  0  0  0  0  0
   22.3515   -9.5443    3.5243 C   0  0  0  0  0  0  0  0  0  0  0  0
   19.9965   -9.4572    3.0215 C   0  0  0  0  0  0  0  0  0  0  0  0
   21.1544  -10.1954    3.2430 C   0  0  0  0  0  0  0  0  0  0  0  0
   18.6886  -10.1685    2.7141 C   0  0  0  0  0  0  0  0  0  0  0  0
   17.9635  -10.4797    4.0132 C   0  0  0  0  0  0  0  0  0  0  0  0
   16.8296  -10.0408    4.2055 O   0  0  0  0  0  0  0  0  0  0  0  0
   18.5510  -11.2223    4.9372 N   0  0  0  0  0  0  0  0  0  0  0  0
   18.2499  -11.0243    6.2900 C   0  0  0  0  0  0  0  0  0  0  0  0
   18.8956  -10.1264    7.1675 C   0  0  0  0  0  0  0  0  0  0  0  0
   17.2805  -11.6594    7.0060 C   0  0  0  0  0  0  0  0  0  0  0  0
   18.3074  -10.2555    8.3328 N   0  0  0  0  0  0  0  0  0  0  0  0
   17.3474  -11.1537    8.2677 N   0  0  0  0  0  0  0  0  0  0  0  0
   16.4681  -11.5575    9.3752 C   0  0  0  0  0  0  0  0  0  0  0  0
   15.3283  -12.4050    8.8341 C   0  0  0  0  0  0  0  0  0  0  0  0
   14.4045  -11.5529    8.0666 N   0  3  0  0  0  0  0  0  0  0  0  0
   13.1355  -11.3627    8.7867 C   0  0  0  0  0  0  0  0  0  0  0  0
   14.1387  -12.2169    6.7822 C   0  0  0  0  0  0  0  0  0  0  0  0
   12.2532  -10.3995    8.0071 C   0  0  0  0  0  0  0  0  0  0  0  0
   12.9497  -11.5760    6.0827 C   0  0  0  0  0  0  0  0  0  0  0  0
   12.6403  -10.3054    6.6419 O   0  0  0  0  0  0  0  0  0  0  0  0
   19.1743   -7.5432    2.9157 H   0  0  0  0  0  0  0  0  0  0  0  0
   23.1878  -10.0687    3.6843 H   0  0  0  0  0  0  0  0  0  0  0  0
   21.1266  -11.1941    3.2000 H   0  0  0  0  0  0  0  0  0  0  0  0
   18.8791  -11.0205    2.2264 H   0  0  0  0  0  0  0  0  0  0  0  0
   18.1148   -9.5797    2.1448 H   0  0  0  0  0  0  0  0  0  0  0  0
   19.2100  -11.9250    4.6692 H   0  0  0  0  0  0  0  0  0  0  0  0
   19.6527   -9.5124    6.9443 H   0  0  0  0  0  0  0  0  0  0  0  0
   16.6469  -12.3572    6.6717 H   0  0  0  0  0  0  0  0  0  0  0  0
   16.0959  -10.7426    9.8194 H   0  0  0  0  0  0  0  0  0  0  0  0
   16.9925  -12.0894   10.0401 H   0  0  0  0  0  0  0  0  0  0  0  0
   14.8369  -12.8281    9.5954 H   0  0  0  0  0  0  0  0  0  0  0  0
   15.6970  -13.1182    8.2379 H   0  0  0  0  0  0  0  0  0  0  0  0
   13.3201  -10.9861    9.6945 H   0  0  0  0  0  0  0  0  0  0  0  0
   12.6691  -12.2424    8.8792 H   0  0  0  0  0  0  0  0  0  0  0  0
   13.9412  -13.1833    6.9468 H   0  0  0  0  0  0  0  0  0  0  0  0
   14.9462  -12.1367    6.1977 H   0  0  0  0  0  0  0  0  0  0  0  0
   12.3185   -9.4928    8.4241 H   0  0  0  0  0  0  0  0  0  0  0  0
   11.3071  -10.7199    8.0528 H   0  0  0  0  0  0  0  0  0  0  0  0
   12.1549  -12.1753    6.1775 H   0  0  0  0  0  0  0  0  0  0  0  0
   13.1663  -11.4605    5.1133 H   0  0  0  0  0  0  0  0  0  0  0  0
   14.8306  -10.6636    7.9005 H   0  0  0  0  0  0  0  0  0  0  0  0
  1  2  1  0  0  0  0
  2  3  2  0  0  0  0
  2  4  1  0  0  0  0
  3  5  1  0  0  0  0
  3  6  1  0  0  0  0
  4  7  2  0  0  0  0
  6  8  2  0  0  0  0
  7  9  1  0  0  0  0
  9 10  1  0  0  0  0
 10 11  2  0  0  0  0
 10 12  1  0  0  0  0
 12 13  1  0  0  0  0
 13 14  1  0  0  0  0
 13 15  2  0  0  0  0
 14 16  2  0  0  0  0
 15 17  1  0  0  0  0
 17 18  1  0  0  0  0
 18 19  1  0  0  0  0
 19 20  1  0  0  0  0
 20 21  1  0  0  0  0
 20 22  1  0  0  0  0
 21 23  1  0  0  0  0
 22 24  1  0  0  0  0
 23 25  1  0  0  0  0
  7  8  1  0  0  0  0
 16 17  1  0  0  0  0
 24 25  1  0  0  0  0
  4 26  1  0  0  0  0
  6 27  1  0  0  0  0
  8 28  1  0  0  0  0
  9 29  1  0  0  0  0
  9 30  1  0  0  0  0
 12 31  1  0  0  0  0
 14 32  1  0  0  0  0
 15 33  1  0  0  0  0
 18 34  1  0  0  0  0
 18 35  1  0  0  0  0
 19 36  1  0  0  0  0
 19 37  1  0  0  0  0
 21 38  1  0  0  0  0
 21 39  1  0  0  0  0
 22 40  1  0  0  0  0
 22 41  1  0  0  0  0
 23 42  1  0  0  0  0
 23 43  1  0  0  0  0
 24 44  1  0  0  0  0
 24 45  1  0  0  0  0
 20 46  1  0  0  0  0
M  CHG  1  20   1
M  END
> <BIOSOLVEIT.HYDE_ESTIMATED_AFFINITY_LOWER_BOUNDARY [nM]>
458408169.651800

> <BIOSOLVEIT.HYDE_ESTIMATED_AFFINITY_UPPER_BOUNDARY [nM]>
45545561978.503525

> <BIOSOLVEIT.HYDE_LIGAND_EFFICIENCY range: ++, +, 0, -, -->
--

> <BIOSOLVEIT.HYDE_LIGAND_LIPOPHILIC_EFFICIENCY range: ++, +, 0, -, -->
--

> <BIOSOLVEIT.INTER_CLASH range: red, yellow, green>
green

> <BIOSOLVEIT.INTRA_CLASH range: red, yellow, green>
green

> <BIOSOLVEIT.LOGP>
1.2862

> <BIOSOLVEIT.MOLECULAR WEIGHT>
384.285

> <BIOSOLVEIT.MOLECULE_CHECKSUM>
My43NjY0Mzsw

> <BIOSOLVEIT.TORSION_QUALITY range: red, yellow, green, not rotatable>
red

> <BIOSOLVEIT.TPSA>
60.59

> <BIOSOLVEIT.SEESAR_FAVORITE>
favorite

> <smc_score>
0.625

> <QED_score>
0.834

> <distance>
0.6

> <SimilarityPheSA_1>
0.687

> <Smiles>
O=C(Cc1ccc(Cl)c(Cl)c1)Nc1cnn(CCN2CCOCC2)c1

> <Similarity_SkelSpheres>
0.675

> <Cluster No>
61.0

> <QueryID>
ALP-POS-ce760d3f-2

> <SimilarityPheSA>
0.687

> <Postera series>
3-aminopyridine-like

> <PDB_code>
Mpro-x12659

> <Approach>
DGM_exploratory_RL

> <ID>
20210628_148

> <SimilarityPheSA_2>
0.685

> <OPTIBRIUM.logD>
2.11954

> <OPTIBRIUM.BBB category>
-

> <OPTIBRIUM.logP>
2.75631

> <OPTIBRIUM.P-gp category>
yes

> <OPTIBRIUM.logS>
3.06826

> <OPTIBRIUM.HIA category>
+

> <OPTIBRIUM.PPB90 category>
high

> <OPTIBRIUM.2D6 affinity category>
medium

> <OPTIBRIUM.hERG pIC50>
5.30473

> <OPTIBRIUM.2C9 pKi>
4.86389

> <OPTIBRIUM.BBB log([brain]:[blood])>
-0.0713953

> <OPTIBRIUM.logS @ pH7.4>
2.64747

$$$$
Compound 874_1_05
haSeeSAR  07122114523D 1   1.00000     0.00000     0
SeeSAR 11.0.2 hazemaj
 43 45  0  0  0  0            999 V2000
   21.8494   -5.8862    3.3376 Cl  0  0  0  0  0  0  0  0  0  0  0  0
   21.0231   -7.4621    3.3534 C   0  0  0  0  0  0  0  0  0  0  0  0
   19.7390   -7.5788    2.8346 C   0  0  0  0  0  0  0  0  0  0  0  0
   21.6716   -8.5700    3.8890 C   0  0  0  0  0  0  0  0  0  0  0  0
   18.9282   -6.1473    2.1550 Cl  0  0  0  0  0  0  0  0  0  0  0  0
   19.0791   -8.8028    2.8410 C   0  0  0  0  0  0  0  0  0  0  0  0
   21.0130   -9.7949    3.8956 C   0  0  0  0  0  0  0  0  0  0  0  0
   19.7285   -9.9095    3.3766 C   0  0  0  0  0  0  0  0  0  0  0  0
   21.6222  -10.8612    4.4027 F   0  0  0  0  0  0  0  0  0  0  0  0
   19.0238  -11.2558    3.3936 C   0  0  0  0  0  0  0  0  0  0  0  0
   18.6960  -11.6205    4.7813 N   0  0  0  0  0  0  0  0  0  0  0  0
   17.5778  -11.1680    5.4741 C   0  0  0  0  0  0  0  0  0  0  0  0
   19.4930  -12.4852    5.6676 C   0  0  0  0  0  0  0  0  0  0  0  0
   16.7697  -10.3797    5.0047 O   0  0  0  0  0  0  0  0  0  0  0  0
   17.5179  -11.7402    6.7520 N   0  0  0  0  0  0  0  0  0  0  0  0
   18.6243  -12.6945    6.8914 C   0  0  0  0  0  0  0  0  0  0  0  0
   16.4910  -11.4479    7.7687 C   0  0  0  0  0  0  0  0  0  0  0  0
   15.6085  -12.6700    7.9636 C   0  0  1  0  0  0  0  0  0  0  0  0
   14.2685  -12.2409    8.5388 C   0  0  0  0  0  0  0  0  0  0  0  0
   15.3891  -13.3553    6.6247 C   0  0  0  0  0  0  0  0  0  0  0  0
   13.3580  -11.8829    7.4438 N   0  0  0  0  0  0  0  0  0  0  0  0
   12.6711  -12.7342    6.7065 N   0  0  0  0  0  0  0  0  0  0  0  0
   13.0901  -10.6155    7.0243 C   0  0  0  0  0  0  0  0  0  0  0  0
   11.9685  -12.0453    5.8300 C   0  0  0  0  0  0  0  0  0  0  0  0
   12.2391  -10.7203    6.0274 N   0  0  0  0  0  0  0  0  0  0  0  0
   22.5953   -8.4871    4.2629 H   0  0  0  0  0  0  0  0  0  0  0  0
   18.1551   -8.8855    2.4676 H   0  0  0  0  0  0  0  0  0  0  0  0
   19.6244  -11.9513    2.9992 H   0  0  0  0  0  0  0  0  0  0  0  0
   18.1824  -11.1984    2.8564 H   0  0  0  0  0  0  0  0  0  0  0  0
   20.3513  -12.0371    5.9177 H   0  0  0  0  0  0  0  0  0  0  0  0
   19.6904  -13.3587    5.2226 H   0  0  0  0  0  0  0  0  0  0  0  0
   19.1439  -12.5083    7.7253 H   0  0  0  0  0  0  0  0  0  0  0  0
   18.2767  -13.6318    6.9175 H   0  0  0  0  0  0  0  0  0  0  0  0
   15.9308  -10.6772    7.4648 H   0  0  0  0  0  0  0  0  0  0  0  0
   16.9352  -11.2160    8.6341 H   0  0  0  0  0  0  0  0  0  0  0  0
   16.0538  -13.3055    8.5944 H   0  0  0  0  0  0  0  0  0  0  0  0
   14.4000  -11.4492    9.1353 H   0  0  0  0  0  0  0  0  0  0  0  0
   13.8756  -12.9941    9.0662 H   0  0  0  0  0  0  0  0  0  0  0  0
   14.8086  -14.1593    6.7529 H   0  0  0  0  0  0  0  0  0  0  0  0
   14.9438  -12.7198    5.9940 H   0  0  0  0  0  0  0  0  0  0  0  0
   16.2707  -13.6376    6.2464 H   0  0  0  0  0  0  0  0  0  0  0  0
   13.4671   -9.7694    7.4011 H   0  0  0  0  0  0  0  0  0  0  0  0
   11.3482  -12.4242    5.1433 H   0  0  0  0  0  0  0  0  0  0  0  0
  1  2  1  0  0  0  0
  2  3  2  0  0  0  0
  2  4  1  0  0  0  0
  3  5  1  0  0  0  0
  3  6  1  0  0  0  0
  4  7  2  0  0  0  0
  6  8  2  0  0  0  0
  7  9  1  0  0  0  0
  8 10  1  0  0  0  0
 10 11  1  0  0  0  0
 11 12  1  0  0  0  0
 11 13  1  0  0  0  0
 12 14  2  0  0  0  0
 12 15  1  0  0  0  0
 13 16  1  0  0  0  0
 15 17  1  0  0  0  0
 17 18  1  0  0  0  0
 18 19  1  0  0  0  0
 18 20  1  0  0  0  0
 19 21  1  0  0  0  0
 21 22  1  0  0  0  0
 21 23  1  0  0  0  0
 22 24  2  0  0  0  0
 23 25  2  0  0  0  0
  7  8  1  0  0  0  0
 15 16  1  0  0  0  0
 24 25  1  0  0  0  0
  4 26  1  0  0  0  0
  6 27  1  0  0  0  0
 10 28  1  0  0  0  0
 10 29  1  0  0  0  0
 13 30  1  0  0  0  0
 13 31  1  0  0  0  0
 16 32  1  0  0  0  0
 16 33  1  0  0  0  0
 17 34  1  0  0  0  0
 17 35  1  0  0  0  0
 18 36  1  0  0  0  0
 19 37  1  0  0  0  0
 19 38  1  0  0  0  0
 20 39  1  0  0  0  0
 20 40  1  0  0  0  0
 20 41  1  0  0  0  0
 23 42  1  0  0  0  0
 24 43  1  0  0  0  0
M  END
> <BIOSOLVEIT.HYDE_ESTIMATED_AFFINITY_LOWER_BOUNDARY [nM]>
1138763204.819836

> <BIOSOLVEIT.HYDE_ESTIMATED_AFFINITY_UPPER_BOUNDARY [nM]>
113142857299.767273

> <BIOSOLVEIT.HYDE_LIGAND_EFFICIENCY range: ++, +, 0, -, -->
--

> <BIOSOLVEIT.HYDE_LIGAND_LIPOPHILIC_EFFICIENCY range: ++, +, 0, -, -->
--

> <BIOSOLVEIT.INTER_CLASH range: red, yellow, green>
green

> <BIOSOLVEIT.INTRA_CLASH range: red, yellow, green>
yellow

> <BIOSOLVEIT.LOGP>
3.2979

> <BIOSOLVEIT.MOLECULAR WEIGHT>
386.256

> <BIOSOLVEIT.MOLECULE_CHECKSUM>
Ni4wMjIxMjsw

> <BIOSOLVEIT.TORSION_QUALITY range: red, yellow, green, not rotatable>
green

> <BIOSOLVEIT.TPSA>
54.26

> <BIOSOLVEIT.SEESAR_FAVORITE>
favorite

> <smc_score>
0.875

> <QED_score>
0.716

> <distance>
0.759

> <SimilarityPheSA_1>
0.644

> <Smiles>
CC(CN1CCN(Cc2cc(Cl)c(Cl)cc2F)C1=O)Cn1cncn1

> <Similarity_SkelSpheres>
0.589

> <Cluster No>
60.0

> <QueryID>
JAG-UCB-a3ef7265-20

> <SimilarityPheSA>
0.6439

> <Postera series>
3-aminopyridine-like

> <PDB_code>
Mpro-x10324

> <Approach>
DGM_exploratory_RL

> <ID>
20210628_144

> <SimilarityPheSA_2>
0.662

> <OPTIBRIUM.logD>
3.50249

> <OPTIBRIUM.BBB category>
-

> <OPTIBRIUM.logP>
3.50249

> <OPTIBRIUM.P-gp category>
yes

> <OPTIBRIUM.logS>
1.3207

> <OPTIBRIUM.HIA category>
+

> <OPTIBRIUM.PPB90 category>
high

> <OPTIBRIUM.2D6 affinity category>
medium

> <OPTIBRIUM.hERG pIC50>
5.7594

> <OPTIBRIUM.2C9 pKi>
5.31415

> <OPTIBRIUM.BBB log([brain]:[blood])>
0.0786978

> <OPTIBRIUM.logS @ pH7.4>
1.3207

$$$$
Compound 875_1_07
haSeeSAR  07122114523D 1   1.00000     0.00000     0
SeeSAR 11.0.2 hazemaj
 43 45  0  0  0  0            999 V2000
   20.8703   -5.7199    3.3811 Cl  0  0  0  0  0  0  0  0  0  0  0  0
   20.7340   -7.4929    3.3095 C   0  0  0  0  0  0  0  0  0  0  0  0
   21.8529   -8.2809    3.5587 C   0  0  0  0  0  0  0  0  0  0  0  0
   19.5115   -8.0821    3.0057 C   0  0  0  0  0  0  0  0  0  0  0  0
   23.4121   -7.5147    3.9474 Cl  0  0  0  0  0  0  0  0  0  0  0  0
   21.7685   -9.6684    3.5069 C   0  0  0  0  0  0  0  0  0  0  0  0
   19.4312   -9.4695    2.9554 C   0  0  0  0  0  0  0  0  0  0  0  0
   20.5473  -10.2619    3.2030 C   0  0  0  0  0  0  0  0  0  0  0  0
   18.0970  -10.1179    2.6233 C   0  0  0  0  0  0  0  0  0  0  0  0
   17.9361  -11.3450    3.4199 N   0  0  0  0  0  0  0  0  0  0  0  0
   17.1340  -11.4530    4.5512 C   0  0  0  0  0  0  0  0  0  0  0  0
   18.6047  -12.6349    3.1799 C   0  0  0  0  0  0  0  0  0  0  0  0
   16.5087  -10.5149    5.0240 O   0  0  0  0  0  0  0  0  0  0  0  0
   17.1476  -12.7633    5.0486 N   0  0  0  0  0  0  0  0  0  0  0  0
   17.9479  -13.5997    4.1463 C   0  0  0  0  0  0  0  0  0  0  0  0
   16.4451  -13.2212    6.2613 C   0  0  0  0  0  0  0  0  0  0  0  0
   15.2031  -14.0018    5.8631 C   0  0  1  0  0  0  0  0  0  0  0  0
   14.3759  -13.1763    4.8912 C   0  0  0  0  0  0  0  0  0  0  0  0
   15.6152  -15.3049    5.1979 C   0  0  0  0  0  0  0  0  0  0  0  0
   13.7489  -12.0588    5.6083 N   0  0  0  0  0  0  0  0  0  0  0  0
   13.7280  -11.9016    6.9179 N   0  0  0  0  0  0  0  0  0  0  0  0
   13.0916  -11.0183    5.0257 C   0  0  0  0  0  0  0  0  0  0  0  0
   13.0788  -10.7872    7.1880 C   0  0  0  0  0  0  0  0  0  0  0  0
   12.6759  -10.2412    6.0016 N   0  0  0  0  0  0  0  0  0  0  0  0
   18.7051   -7.5184    2.8267 H   0  0  0  0  0  0  0  0  0  0  0  0
   22.5750  -10.2319    3.6858 H   0  0  0  0  0  0  0  0  0  0  0  0
   20.4719  -11.2583    3.1625 H   0  0  0  0  0  0  0  0  0  0  0  0
   18.0705  -10.3464    1.6500 H   0  0  0  0  0  0  0  0  0  0  0  0
   17.3552   -9.4822    2.8367 H   0  0  0  0  0  0  0  0  0  0  0  0
   19.5847  -12.5632    3.3655 H   0  0  0  0  0  0  0  0  0  0  0  0
   18.4653  -12.9331    2.2356 H   0  0  0  0  0  0  0  0  0  0  0  0
   18.6405  -14.1055    4.6605 H   0  0  0  0  0  0  0  0  0  0  0  0
   17.3619  -14.2433    3.6541 H   0  0  0  0  0  0  0  0  0  0  0  0
   16.1792  -12.4295    6.8114 H   0  0  0  0  0  0  0  0  0  0  0  0
   17.0517  -13.8099    6.7957 H   0  0  0  0  0  0  0  0  0  0  0  0
   14.6590  -14.2009    6.6781 H   0  0  0  0  0  0  0  0  0  0  0  0
   13.6661  -13.7519    4.4851 H   0  0  0  0  0  0  0  0  0  0  0  0
   14.9684  -12.8186    4.1693 H   0  0  0  0  0  0  0  0  0  0  0  0
   14.7982  -15.8183    4.9360 H   0  0  0  0  0  0  0  0  0  0  0  0
   16.1593  -15.1056    4.3829 H   0  0  0  0  0  0  0  0  0  0  0  0
   16.1595  -15.8480    5.8374 H   0  0  0  0  0  0  0  0  0  0  0  0
   12.9521  -10.8733    4.0462 H   0  0  0  0  0  0  0  0  0  0  0  0
   12.9110  -10.4086    8.0982 H   0  0  0  0  0  0  0  0  0  0  0  0
  1  2  1  0  0  0  0
  2  3  2  0  0  0  0
  2  4  1  0  0  0  0
  3  5  1  0  0  0  0
  3  6  1  0  0  0  0
  4  7  2  0  0  0  0
  6  8  2  0  0  0  0
  7  9  1  0  0  0  0
  9 10  1  0  0  0  0
 10 11  1  0  0  0  0
 10 12  1  0  0  0  0
 11 13  2  0  0  0  0
 11 14  1  0  0  0  0
 12 15  1  0  0  0  0
 14 16  1  0  0  0  0
 16 17  1  0  0  0  0
 17 18  1  0  0  0  0
 17 19  1  0  0  0  0
 18 20  1  0  0  0  0
 20 21  1  0  0  0  0
 20 22  1  0  0  0  0
 21 23  2  0  0  0  0
 22 24  2  0  0  0  0
  7  8  1  0  0  0  0
 14 15  1  0  0  0  0
 23 24  1  0  0  0  0
  4 25  1  0  0  0  0
  6 26  1  0  0  0  0
  8 27  1  0  0  0  0
  9 28  1  0  0  0  0
  9 29  1  0  0  0  0
 12 30  1  0  0  0  0
 12 31  1  0  0  0  0
 15 32  1  0  0  0  0
 15 33  1  0  0  0  0
 16 34  1  0  0  0  0
 16 35  1  0  0  0  0
 17 36  1  0  0  0  0
 18 37  1  0  0  0  0
 18 38  1  0  0  0  0
 19 39  1  0  0  0  0
 19 40  1  0  0  0  0
 19 41  1  0  0  0  0
 22 42  1  0  0  0  0
 23 43  1  0  0  0  0
M  END
> <BIOSOLVEIT.HYDE_ESTIMATED_AFFINITY_LOWER_BOUNDARY [nM]>
83917835.456867

> <BIOSOLVEIT.HYDE_ESTIMATED_AFFINITY_UPPER_BOUNDARY [nM]>
8337733114.149736

> <BIOSOLVEIT.HYDE_LIGAND_EFFICIENCY range: ++, +, 0, -, -->
--

> <BIOSOLVEIT.HYDE_LIGAND_LIPOPHILIC_EFFICIENCY range: ++, +, 0, -, -->
--

> <BIOSOLVEIT.INTER_CLASH range: red, yellow, green>
green

> <BIOSOLVEIT.INTRA_CLASH range: red, yellow, green>
green

> <BIOSOLVEIT.LOGP>
3.1588

> <BIOSOLVEIT.MOLECULAR WEIGHT>
368.266

> <BIOSOLVEIT.MOLECULE_CHECKSUM>
LTAuNDQyNjU7MC4wMTg0NDM3

> <BIOSOLVEIT.TORSION_QUALITY range: red, yellow, green, not rotatable>
yellow

> <BIOSOLVEIT.TPSA>
54.26

> <BIOSOLVEIT.SEESAR_FAVORITE>
favorite

> <smc_score>
0.625

> <QED_score>
0.787

> <distance>
0.703

> <SimilarityPheSA_1>
0.634

> <Smiles>
CC(CN1CCN(Cc2ccc(Cl)c(Cl)c2)C1=O)Cn1cncn1

> <Similarity_SkelSpheres>
0.648

> <Cluster No>
60.0

> <QueryID>
JAG-UCB-a3ef7265-20

> <SimilarityPheSA>
0.6338

> <Postera series>
3-aminopyridine-like

> <PDB_code>
Mpro-x10324

> <Approach>
DGM_exploratory_RL

> <ID>
20210628_145

> <SimilarityPheSA_2>
0.691

> <OPTIBRIUM.logD>
3.39865

> <OPTIBRIUM.BBB category>
-

> <OPTIBRIUM.logP>
3.39865

> <OPTIBRIUM.P-gp category>
no

> <OPTIBRIUM.logS>
1.91774

> <OPTIBRIUM.HIA category>
+

> <OPTIBRIUM.PPB90 category>
high

> <OPTIBRIUM.2D6 affinity category>
medium

> <OPTIBRIUM.hERG pIC50>
5.44411

> <OPTIBRIUM.2C9 pKi>
5.12797

> <OPTIBRIUM.BBB log([brain]:[blood])>
0.107243

> <OPTIBRIUM.logS @ pH7.4>
1.91774

$$$$
Compound 875_1_09
haSeeSAR  07122114523D 1   1.00000     0.00000     0
SeeSAR 11.0.2 hazemaj
 43 45  0  0  0  0            999 V2000
   21.5422   -5.7225    3.4096 Cl  0  0  0  0  0  0  0  0  0  0  0  0
   21.7118   -7.4708    3.6963 C   0  0  0  0  0  0  0  0  0  0  0  0
   22.9681   -8.0079    3.9572 C   0  0  0  0  0  0  0  0  0  0  0  0
   20.5894   -8.2910    3.6590 C   0  0  0  0  0  0  0  0  0  0  0  0
   24.3971   -6.9473    4.0032 Cl  0  0  0  0  0  0  0  0  0  0  0  0
   23.1230   -9.3717    4.1830 C   0  0  0  0  0  0  0  0  0  0  0  0
   20.7484   -9.6537    3.8858 C   0  0  0  0  0  0  0  0  0  0  0  0
   22.0026  -10.1959    4.1462 C   0  0  0  0  0  0  0  0  0  0  0  0
   19.5243  -10.5544    3.8455 C   0  0  0  0  0  0  0  0  0  0  0  0
   19.1122  -10.8838    5.2195 N   0  0  0  0  0  0  0  0  0  0  0  0
   17.8251  -10.7162    5.7200 C   0  0  0  0  0  0  0  0  0  0  0  0
   19.9787  -11.4088    6.2880 C   0  0  0  0  0  0  0  0  0  0  0  0
   16.9088  -10.2335    5.0702 O   0  0  0  0  0  0  0  0  0  0  0  0
   17.7403  -11.1759    7.0412 N   0  0  0  0  0  0  0  0  0  0  0  0
   19.0334  -11.7583    7.4195 C   0  0  0  0  0  0  0  0  0  0  0  0
   16.5373  -11.1087    7.8907 C   0  0  0  0  0  0  0  0  0  0  0  0
   15.8249  -12.4512    7.8675 C   0  0  1  0  0  0  0  0  0  0  0  0
   15.3795  -12.7640    6.4483 C   0  0  0  0  0  0  0  0  0  0  0  0
   16.7729  -13.5363    8.3518 C   0  0  0  0  0  0  0  0  0  0  0  0
   14.0408  -12.2049    6.2209 N   0  0  0  0  0  0  0  0  0  0  0  0
   12.9612  -12.8976    5.9133 N   0  0  0  0  0  0  0  0  0  0  0  0
   13.7161  -10.8844    6.2907 C   0  0  0  0  0  0  0  0  0  0  0  0
   11.9547  -12.0564    5.7886 C   0  0  0  0  0  0  0  0  0  0  0  0
   12.4329  -10.7969    6.0184 N   0  0  0  0  0  0  0  0  0  0  0  0
   19.6846   -7.9079    3.4724 H   0  0  0  0  0  0  0  0  0  0  0  0
   24.0277   -9.7547    4.3695 H   0  0  0  0  0  0  0  0  0  0  0  0
   22.0990  -11.1782    4.3070 H   0  0  0  0  0  0  0  0  0  0  0  0
   19.7457  -11.3960    3.3530 H   0  0  0  0  0  0  0  0  0  0  0  0
   18.7777  -10.0812    3.3779 H   0  0  0  0  0  0  0  0  0  0  0  0
   20.6365  -10.7146    6.5807 H   0  0  0  0  0  0  0  0  0  0  0  0
   20.4695  -12.2222    5.9755 H   0  0  0  0  0  0  0  0  0  0  0  0
   19.3564  -11.3639    8.2798 H   0  0  0  0  0  0  0  0  0  0  0  0
   18.9552  -12.7505    7.5162 H   0  0  0  0  0  0  0  0  0  0  0  0
   15.9234  -10.3995    7.5438 H   0  0  0  0  0  0  0  0  0  0  0  0
   16.8037  -10.8889    8.8292 H   0  0  0  0  0  0  0  0  0  0  0  0
   15.0255  -12.4148    8.4673 H   0  0  0  0  0  0  0  0  0  0  0  0
   15.3534  -13.7551    6.3179 H   0  0  0  0  0  0  0  0  0  0  0  0
   16.0243  -12.3594    5.7998 H   0  0  0  0  0  0  0  0  0  0  0  0
   16.3042  -14.4195    8.3365 H   0  0  0  0  0  0  0  0  0  0  0  0
   17.5721  -13.5725    7.7520 H   0  0  0  0  0  0  0  0  0  0  0  0
   17.0658  -13.3304    9.2855 H   0  0  0  0  0  0  0  0  0  0  0  0
   14.3337  -10.1282    6.5070 H   0  0  0  0  0  0  0  0  0  0  0  0
   11.0098  -12.2967    5.5658 H   0  0  0  0  0  0  0  0  0  0  0  0
  1  2  1  0  0  0  0
  2  3  2  0  0  0  0
  2  4  1  0  0  0  0
  3  5  1  0  0  0  0
  3  6  1  0  0  0  0
  4  7  2  0  0  0  0
  6  8  2  0  0  0  0
  7  9  1  0  0  0  0
  9 10  1  0  0  0  0
 10 11  1  0  0  0  0
 10 12  1  0  0  0  0
 11 13  2  0  0  0  0
 11 14  1  0  0  0  0
 12 15  1  0  0  0  0
 14 16  1  0  0  0  0
 16 17  1  0  0  0  0
 17 18  1  0  0  0  0
 17 19  1  0  0  0  0
 18 20  1  0  0  0  0
 20 21  1  0  0  0  0
 20 22  1  0  0  0  0
 21 23  2  0  0  0  0
 22 24  2  0  0  0  0
  7  8  1  0  0  0  0
 14 15  1  0  0  0  0
 23 24  1  0  0  0  0
  4 25  1  0  0  0  0
  6 26  1  0  0  0  0
  8 27  1  0  0  0  0
  9 28  1  0  0  0  0
  9 29  1  0  0  0  0
 12 30  1  0  0  0  0
 12 31  1  0  0  0  0
 15 32  1  0  0  0  0
 15 33  1  0  0  0  0
 16 34  1  0  0  0  0
 16 35  1  0  0  0  0
 17 36  1  0  0  0  0
 18 37  1  0  0  0  0
 18 38  1  0  0  0  0
 19 39  1  0  0  0  0
 19 40  1  0  0  0  0
 19 41  1  0  0  0  0
 22 42  1  0  0  0  0
 23 43  1  0  0  0  0
M  END
> <BIOSOLVEIT.HYDE_ESTIMATED_AFFINITY_LOWER_BOUNDARY [nM]>
3035185922.789680

> <BIOSOLVEIT.HYDE_ESTIMATED_AFFINITY_UPPER_BOUNDARY [nM]>
301563666868.553223

> <BIOSOLVEIT.HYDE_LIGAND_EFFICIENCY range: ++, +, 0, -, -->
--

> <BIOSOLVEIT.HYDE_LIGAND_LIPOPHILIC_EFFICIENCY range: ++, +, 0, -, -->
--

> <BIOSOLVEIT.INTER_CLASH range: red, yellow, green>
yellow

> <BIOSOLVEIT.INTRA_CLASH range: red, yellow, green>
yellow

> <BIOSOLVEIT.LOGP>
3.1588

> <BIOSOLVEIT.MOLECULAR WEIGHT>
368.266

> <BIOSOLVEIT.MOLECULE_CHECKSUM>
OC40NTIzMjsw

> <BIOSOLVEIT.TORSION_QUALITY range: red, yellow, green, not rotatable>
green

> <BIOSOLVEIT.TPSA>
54.26

> <BIOSOLVEIT.SEESAR_FAVORITE>
favorite

> <smc_score>
0.625

> <QED_score>
0.787

> <distance>
0.703

> <SimilarityPheSA_1>
0.634

> <Smiles>
CC(CN1CCN(Cc2ccc(Cl)c(Cl)c2)C1=O)Cn1cncn1

> <Similarity_SkelSpheres>
0.648

> <Cluster No>
60.0

> <QueryID>
JAG-UCB-a3ef7265-20

> <SimilarityPheSA>
0.6338

> <Postera series>
3-aminopyridine-like

> <PDB_code>
Mpro-x10324

> <Approach>
DGM_exploratory_RL

> <ID>
20210628_145

> <SimilarityPheSA_2>
0.691

> <OPTIBRIUM.logD>
3.39865

> <OPTIBRIUM.BBB category>
-

> <OPTIBRIUM.logP>
3.39865

> <OPTIBRIUM.P-gp category>
no

> <OPTIBRIUM.logS>
1.91774

> <OPTIBRIUM.HIA category>
+

> <OPTIBRIUM.PPB90 category>
high

> <OPTIBRIUM.2D6 affinity category>
medium

> <OPTIBRIUM.hERG pIC50>
5.44411

> <OPTIBRIUM.2C9 pKi>
5.12797

> <OPTIBRIUM.BBB log([brain]:[blood])>
0.107243

> <OPTIBRIUM.logS @ pH7.4>
1.91774

$$$$
Compound 875_1_10
haSeeSAR  07122114523D 1   1.00000     0.00000     0
SeeSAR 11.0.2 hazemaj
 43 45  0  0  0  0            999 V2000
   21.3214   -5.9150    3.3370 Cl  0  0  0  0  0  0  0  0  0  0  0  0
   21.5278   -7.6438    3.7056 C   0  0  0  0  0  0  0  0  0  0  0  0
   22.7946   -8.1406    3.9941 C   0  0  0  0  0  0  0  0  0  0  0  0
   20.4235   -8.4891    3.7041 C   0  0  0  0  0  0  0  0  0  0  0  0
   24.2002   -7.0482    3.9937 Cl  0  0  0  0  0  0  0  0  0  0  0  0
   22.9781   -9.4887    4.2839 C   0  0  0  0  0  0  0  0  0  0  0  0
   20.6113   -9.8360    3.9948 C   0  0  0  0  0  0  0  0  0  0  0  0
   21.8761  -10.3380    4.2832 C   0  0  0  0  0  0  0  0  0  0  0  0
   19.4071  -10.7639    3.9939 C   0  0  0  0  0  0  0  0  0  0  0  0
   18.9994  -11.0398    5.3810 N   0  0  0  0  0  0  0  0  0  0  0  0
   17.7411  -10.7618    5.9048 C   0  0  0  0  0  0  0  0  0  0  0  0
   19.8436  -11.6185    6.4397 C   0  0  0  0  0  0  0  0  0  0  0  0
   16.8530  -10.2156    5.2666 O   0  0  0  0  0  0  0  0  0  0  0  0
   17.6481  -11.1948    7.2346 N   0  0  0  0  0  0  0  0  0  0  0  0
   18.8978  -11.8747    7.5954 C   0  0  0  0  0  0  0  0  0  0  0  0
   16.4728  -11.0188    8.1072 C   0  0  0  0  0  0  0  0  0  0  0  0
   15.7411  -12.3439    8.2453 C   0  0  1  0  0  0  0  0  0  0  0  0
   15.3392  -12.8465    6.8683 C   0  0  0  0  0  0  0  0  0  0  0  0
   16.6554  -13.3608    8.9090 C   0  0  0  0  0  0  0  0  0  0  0  0
   14.3060  -11.9662    6.3081 N   0  0  0  0  0  0  0  0  0  0  0  0
   14.1397  -11.6947    5.0280 N   0  0  0  0  0  0  0  0  0  0  0  0
   13.3663  -11.2955    7.0300 C   0  0  0  0  0  0  0  0  0  0  0  0
   13.1170  -10.8720    4.9117 C   0  0  0  0  0  0  0  0  0  0  0  0
   12.6404  -10.6189    6.1674 N   0  0  0  0  0  0  0  0  0  0  0  0
   19.5113   -8.1349    3.4977 H   0  0  0  0  0  0  0  0  0  0  0  0
   23.8904   -9.8427    4.4901 H   0  0  0  0  0  0  0  0  0  0  0  0
   21.9932  -11.3094    4.4899 H   0  0  0  0  0  0  0  0  0  0  0  0
   19.6478  -11.6219    3.5402 H   0  0  0  0  0  0  0  0  0  0  0  0
   18.6513  -10.3287    3.5046 H   0  0  0  0  0  0  0  0  0  0  0  0
   20.5613  -10.9759    6.7080 H   0  0  0  0  0  0  0  0  0  0  0  0
   20.2603  -12.4731    6.1298 H   0  0  0  0  0  0  0  0  0  0  0  0
   19.2700  -11.4959    8.4427 H   0  0  0  0  0  0  0  0  0  0  0  0
   18.7420  -12.8560    7.7091 H   0  0  0  0  0  0  0  0  0  0  0  0
   15.8587  -10.3390    7.7061 H   0  0  0  0  0  0  0  0  0  0  0  0
   16.7712  -10.7071    9.0094 H   0  0  0  0  0  0  0  0  0  0  0  0
   14.9226  -12.2159    8.8054 H   0  0  0  0  0  0  0  0  0  0  0  0
   14.9791  -13.7764    6.9448 H   0  0  0  0  0  0  0  0  0  0  0  0
   16.1384  -12.8470    6.2672 H   0  0  0  0  0  0  0  0  0  0  0  0
   16.1741  -14.2325    8.9998 H   0  0  0  0  0  0  0  0  0  0  0  0
   17.4739  -13.4886    8.3488 H   0  0  0  0  0  0  0  0  0  0  0  0
   16.9199  -13.0300    9.8149 H   0  0  0  0  0  0  0  0  0  0  0  0
   13.2507  -11.3139    8.0232 H   0  0  0  0  0  0  0  0  0  0  0  0
   12.7543  -10.4994    4.0575 H   0  0  0  0  0  0  0  0  0  0  0  0
  1  2  1  0  0  0  0
  2  3  2  0  0  0  0
  2  4  1  0  0  0  0
  3  5  1  0  0  0  0
  3  6  1  0  0  0  0
  4  7  2  0  0  0  0
  6  8  2  0  0  0  0
  7  9  1  0  0  0  0
  9 10  1  0  0  0  0
 10 11  1  0  0  0  0
 10 12  1  0  0  0  0
 11 13  2  0  0  0  0
 11 14  1  0  0  0  0
 12 15  1  0  0  0  0
 14 16  1  0  0  0  0
 16 17  1  0  0  0  0
 17 18  1  0  0  0  0
 17 19  1  0  0  0  0
 18 20  1  0  0  0  0
 20 21  1  0  0  0  0
 20 22  1  0  0  0  0
 21 23  2  0  0  0  0
 22 24  2  0  0  0  0
  7  8  1  0  0  0  0
 14 15  1  0  0  0  0
 23 24  1  0  0  0  0
  4 25  1  0  0  0  0
  6 26  1  0  0  0  0
  8 27  1  0  0  0  0
  9 28  1  0  0  0  0
  9 29  1  0  0  0  0
 12 30  1  0  0  0  0
 12 31  1  0  0  0  0
 15 32  1  0  0  0  0
 15 33  1  0  0  0  0
 16 34  1  0  0  0  0
 16 35  1  0  0  0  0
 17 36  1  0  0  0  0
 18 37  1  0  0  0  0
 18 38  1  0  0  0  0
 19 39  1  0  0  0  0
 19 40  1  0  0  0  0
 19 41  1  0  0  0  0
 22 42  1  0  0  0  0
 23 43  1  0  0  0  0
M  END
> <BIOSOLVEIT.HYDE_ESTIMATED_AFFINITY_LOWER_BOUNDARY [nM]>
1118468738.657064

> <BIOSOLVEIT.HYDE_ESTIMATED_AFFINITY_UPPER_BOUNDARY [nM]>
111126482096.115723

> <BIOSOLVEIT.HYDE_LIGAND_EFFICIENCY range: ++, +, 0, -, -->
--

> <BIOSOLVEIT.HYDE_LIGAND_LIPOPHILIC_EFFICIENCY range: ++, +, 0, -, -->
--

> <BIOSOLVEIT.INTER_CLASH range: red, yellow, green>
yellow

> <BIOSOLVEIT.INTRA_CLASH range: red, yellow, green>
yellow

> <BIOSOLVEIT.LOGP>
3.1588

> <BIOSOLVEIT.MOLECULAR WEIGHT>
368.266

> <BIOSOLVEIT.MOLECULE_CHECKSUM>
NS45Nzc1NTsw

> <BIOSOLVEIT.TORSION_QUALITY range: red, yellow, green, not rotatable>
yellow

> <BIOSOLVEIT.TPSA>
54.26

> <BIOSOLVEIT.SEESAR_FAVORITE>
favorite

> <smc_score>
0.625

> <QED_score>
0.787

> <distance>
0.703

> <SimilarityPheSA_1>
0.634

> <Smiles>
CC(CN1CCN(Cc2ccc(Cl)c(Cl)c2)C1=O)Cn1cncn1

> <Similarity_SkelSpheres>
0.648

> <Cluster No>
60.0

> <QueryID>
JAG-UCB-a3ef7265-20

> <SimilarityPheSA>
0.6338

> <Postera series>
3-aminopyridine-like

> <PDB_code>
Mpro-x10324

> <Approach>
DGM_exploratory_RL

> <ID>
20210628_145

> <SimilarityPheSA_2>
0.691

> <OPTIBRIUM.logD>
3.39865

> <OPTIBRIUM.BBB category>
-

> <OPTIBRIUM.logP>
3.39865

> <OPTIBRIUM.P-gp category>
no

> <OPTIBRIUM.logS>
1.91774

> <OPTIBRIUM.HIA category>
+

> <OPTIBRIUM.PPB90 category>
high

> <OPTIBRIUM.2D6 affinity category>
medium

> <OPTIBRIUM.hERG pIC50>
5.44411

> <OPTIBRIUM.2C9 pKi>
5.12797

> <OPTIBRIUM.BBB log([brain]:[blood])>
0.107243

> <OPTIBRIUM.logS @ pH7.4>
1.91774

$$$$
Compound 917_1_1
haSeeSAR  07122114523D 1   1.00000     0.00000     0
SeeSAR 11.0.2 hazemaj
 50 52  0  0  0  0            999 V2000
   23.3644   -7.8983    4.9266 Cl  0  0  0  0  0  0  0  0  0  0  0  0
   21.8861   -8.6030    4.2297 C   0  0  0  0  0  0  0  0  0  0  0  0
   21.0055   -7.7995    3.5136 C   0  0  0  0  0  0  0  0  0  0  0  0
   21.6173   -9.9570    4.4048 C   0  0  0  0  0  0  0  0  0  0  0  0
   21.3635   -6.0690    3.2985 Cl  0  0  0  0  0  0  0  0  0  0  0  0
   19.8469   -8.3381    2.9641 C   0  0  0  0  0  0  0  0  0  0  0  0
   20.4600  -10.5009    3.8572 C   0  0  0  0  0  0  0  0  0  0  0  0
   19.5820   -9.6923    3.1415 C   0  0  0  0  0  0  0  0  0  0  0  0
   20.1865  -11.9824    4.0610 C   0  0  0  0  0  0  0  0  0  0  0  0
   18.3106  -10.2622    2.5335 C   0  0  0  0  0  0  0  0  0  0  0  0
   18.9026  -12.1560    4.8559 C   0  0  0  0  0  0  0  0  0  0  0  0
   18.7683  -11.5884    5.9399 O   0  0  0  0  0  0  0  0  0  0  0  0
   17.9294  -12.9171    4.3826 N   0  0  0  0  0  0  0  0  0  0  0  0
   16.6877  -13.0850    5.1513 C   0  0  0  0  0  0  0  0  0  0  0  0
   15.5781  -13.5627    4.2250 C   0  0  2  0  0  0  0  0  0  0  0  0
   14.2823  -13.0287    4.6418 N   0  0  0  0  0  0  0  0  0  0  0  0
   15.4586  -15.0721    4.2191 C   0  0  0  0  0  0  0  0  0  0  0  0
   14.0297  -11.7688    5.2056 C   0  0  0  0  0  0  0  0  0  0  0  0
   13.2984  -14.0752    4.3714 C   0  0  0  0  0  0  0  0  0  0  0  0
   14.0697  -15.3118    4.7757 C   0  0  0  0  0  0  0  0  0  0  0  0
   14.5744  -10.7668    4.7424 O   0  0  0  0  0  0  0  0  0  0  0  0
   13.0837  -11.6414    6.3876 C   0  0  2  0  0  0  0  0  0  0  0  0
   12.8067  -10.2766    6.6364 O   0  0  0  0  0  0  0  0  0  0  0  0
   13.7819  -12.0879    7.6542 C   0  0  0  0  0  0  0  0  0  0  0  0
   12.3111  -10.2324    7.9620 C   0  0  0  0  0  0  0  0  0  0  0  0
   13.2245  -11.1682    8.7210 C   0  0  0  0  0  0  0  0  0  0  0  0
   22.2508  -10.5342    4.9200 H   0  0  0  0  0  0  0  0  0  0  0  0
   19.2135   -7.7606    2.4490 H   0  0  0  0  0  0  0  0  0  0  0  0
   20.9471  -12.3958    4.5618 H   0  0  0  0  0  0  0  0  0  0  0  0
   20.0909  -12.4293    3.1715 H   0  0  0  0  0  0  0  0  0  0  0  0
   18.2515  -11.2391    2.7392 H   0  0  0  0  0  0  0  0  0  0  0  0
   17.5168   -9.7918    2.9189 H   0  0  0  0  0  0  0  0  0  0  0  0
   18.3271  -10.1308    1.5423 H   0  0  0  0  0  0  0  0  0  0  0  0
   18.0385  -13.3782    3.5020 H   0  0  0  0  0  0  0  0  0  0  0  0
   16.4275  -12.2100    5.5595 H   0  0  0  0  0  0  0  0  0  0  0  0
   16.8321  -13.7603    5.8746 H   0  0  0  0  0  0  0  0  0  0  0  0
   15.7743  -13.2495    3.2958 H   0  0  0  0  0  0  0  0  0  0  0  0
   16.1555  -15.4893    4.8023 H   0  0  0  0  0  0  0  0  0  0  0  0
   15.5402  -15.4345    3.2906 H   0  0  0  0  0  0  0  0  0  0  0  0
   13.0458  -14.1003    3.4041 H   0  0  0  0  0  0  0  0  0  0  0  0
   12.4757  -13.9577    4.9277 H   0  0  0  0  0  0  0  0  0  0  0  0
   14.0964  -15.4051    5.7710 H   0  0  0  0  0  0  0  0  0  0  0  0
   13.6623  -16.1323    4.3748 H   0  0  0  0  0  0  0  0  0  0  0  0
   12.2424  -12.1600    6.2356 H   0  0  0  0  0  0  0  0  0  0  0  0
   14.7724  -11.9782    7.5721 H   0  0  0  0  0  0  0  0  0  0  0  0
   13.5682  -13.0427    7.8606 H   0  0  0  0  0  0  0  0  0  0  0  0
   11.3641  -10.5515    7.9990 H   0  0  0  0  0  0  0  0  0  0  0  0
   12.3650   -9.3048    8.3316 H   0  0  0  0  0  0  0  0  0  0  0  0
   13.9591  -10.6599    9.1704 H   0  0  0  0  0  0  0  0  0  0  0  0
   12.7118  -11.6875    9.4046 H   0  0  0  0  0  0  0  0  0  0  0  0
  1  2  1  0  0  0  0
  2  3  2  0  0  0  0
  2  4  1  0  0  0  0
  3  5  1  0  0  0  0
  3  6  1  0  0  0  0
  4  7  2  0  0  0  0
  6  8  2  0  0  0  0
  7  9  1  0  0  0  0
  8 10  1  0  0  0  0
  9 11  1  0  0  0  0
 11 12  2  0  0  0  0
 11 13  1  0  0  0  0
 13 14  1  0  0  0  0
 14 15  1  0  0  0  0
 15 16  1  0  0  0  0
 15 17  1  0  0  0  0
 16 18  1  0  0  0  0
 16 19  1  0  0  0  0
 17 20  1  0  0  0  0
 18 21  2  0  0  0  0
 18 22  1  0  0  0  0
 22 23  1  0  0  0  0
 22 24  1  0  0  0  0
 23 25  1  0  0  0  0
 24 26  1  0  0  0  0
  7  8  1  0  0  0  0
 19 20  1  0  0  0  0
 25 26  1  0  0  0  0
  4 27  1  0  0  0  0
  6 28  1  0  0  0  0
  9 29  1  0  0  0  0
  9 30  1  0  0  0  0
 10 31  1  0  0  0  0
 10 32  1  0  0  0  0
 10 33  1  0  0  0  0
 13 34  1  0  0  0  0
 14 35  1  0  0  0  0
 14 36  1  0  0  0  0
 15 37  1  0  0  0  0
 17 38  1  0  0  0  0
 17 39  1  0  0  0  0
 19 40  1  0  0  0  0
 19 41  1  0  0  0  0
 20 42  1  0  0  0  0
 20 43  1  0  0  0  0
 22 44  1  0  0  0  0
 24 45  1  0  0  0  0
 24 46  1  0  0  0  0
 25 47  1  0  0  0  0
 25 48  1  0  0  0  0
 26 49  1  0  0  0  0
 26 50  1  0  0  0  0
M  END
> <BIOSOLVEIT.HYDE_ESTIMATED_AFFINITY_LOWER_BOUNDARY [nM]>
642504460.488676

> <BIOSOLVEIT.HYDE_ESTIMATED_AFFINITY_UPPER_BOUNDARY [nM]>
63836616936.560844

> <BIOSOLVEIT.HYDE_LIGAND_EFFICIENCY range: ++, +, 0, -, -->
--

> <BIOSOLVEIT.HYDE_LIGAND_LIPOPHILIC_EFFICIENCY range: ++, +, 0, -, -->
--

> <BIOSOLVEIT.INTER_CLASH range: red, yellow, green>
green

> <BIOSOLVEIT.INTRA_CLASH range: red, yellow, green>
green

> <BIOSOLVEIT.LOGP>
3.13052

> <BIOSOLVEIT.MOLECULAR WEIGHT>
399.316

> <BIOSOLVEIT.MOLECULE_CHECKSUM>
NC42MDMzNjsw

> <BIOSOLVEIT.TORSION_QUALITY range: red, yellow, green, not rotatable>
yellow

> <BIOSOLVEIT.TPSA>
58.64

> <BIOSOLVEIT.SEESAR_FAVORITE>
favorite

> <smc_score>
0.563

> <QED_score>
0.828

> <distance>
0.726

> <SimilarityPheSA_1>
0.633

> <Smiles>
Cc1cc(Cl)c(Cl)cc1CC(=O)NCC1CCCN1C(=O)C1CCCO1

> <Similarity_SkelSpheres>
0.578

> <Cluster No>
79.0

> <QueryID>
MAT-POS-199e2e7c-1

> <SimilarityPheSA>
0.6329

> <Postera series>
3-aminopyridine-like

> <PDB_code>
Mpro-x12000

> <Approach>
DGM_exploratory_RL

> <ID>
20210628_187

> <SimilarityPheSA_2>
0.671

> <OPTIBRIUM.logD>
3.40034

> <OPTIBRIUM.BBB category>
-

> <OPTIBRIUM.logP>
3.40034

> <OPTIBRIUM.P-gp category>
yes

> <OPTIBRIUM.logS>
2.05789

> <OPTIBRIUM.HIA category>
+

> <OPTIBRIUM.PPB90 category>
high

> <OPTIBRIUM.2D6 affinity category>
high

> <OPTIBRIUM.hERG pIC50>
4.40985

> <OPTIBRIUM.2C9 pKi>
4.55735

> <OPTIBRIUM.BBB log([brain]:[blood])>
-0.458715

> <OPTIBRIUM.logS @ pH7.4>
2.05789

$$$$
Compound 930_1_1
haSeeSAR  07122114523D 1   1.00000     0.00000     0
SeeSAR 11.0.2 hazemaj
 37 39  0  0  0  0            999 V2000
   21.9005   -6.3680    3.5713 Cl  0  0  0  0  0  0  0  0  0  0  0  0
   21.2243   -8.0077    3.4319 C   0  0  0  0  0  0  0  0  0  0  0  0
   22.0656   -9.0820    3.1628 C   0  0  0  0  0  0  0  0  0  0  0  0
   19.8600   -8.2114    3.5926 C   0  0  0  0  0  0  0  0  0  0  0  0
   23.8131   -8.8145    2.9592 Cl  0  0  0  0  0  0  0  0  0  0  0  0
   21.5634  -10.3744    3.0482 C   0  0  0  0  0  0  0  0  0  0  0  0
   19.3753   -9.5068    3.4763 C   0  0  0  0  0  0  0  0  0  0  0  0
   20.1973  -10.5829    3.2037 C   0  0  0  0  0  0  0  0  0  0  0  0
   18.0059   -9.9548    3.5912 C   0  0  0  0  0  0  0  0  0  0  0  0
   19.2997  -11.8111    3.1754 C   0  0  1  0  0  0  0  0  0  0  0  0
   17.0511   -9.2287    3.8125 O   0  0  0  0  0  0  0  0  0  0  0  0
   17.9334  -11.3362    3.4163 N   0  0  0  0  0  0  0  0  0  0  0  0
   19.3192  -12.4478    1.7927 C   0  0  0  0  0  0  0  0  0  0  0  0
   16.7105  -12.1549    3.4591 C   0  0  0  0  0  0  0  0  0  0  0  0
   15.9484  -11.8607    4.7409 C   0  0  0  0  0  0  0  0  0  0  0  0
   15.3953  -10.7713    4.8919 O   0  0  0  0  0  0  0  0  0  0  0  0
   15.8795  -12.7754    5.6943 N   0  0  0  0  0  0  0  0  0  0  0  0
   15.1425  -12.4908    6.9340 C   0  0  0  0  0  0  0  0  0  0  0  0
   13.7118  -12.1069    6.5959 C   0  0  0  0  0  0  0  0  0  0  0  0
   13.0431  -11.0018    7.0323 C   0  0  0  0  0  0  0  0  0  0  0  0
   12.8195  -12.8231    5.7695 C   0  0  0  0  0  0  0  0  0  0  0  0
   11.8259  -11.0166    6.5195 O   0  0  0  0  0  0  0  0  0  0  0  0
   11.6687  -12.0964    5.7657 C   0  0  0  0  0  0  0  0  0  0  0  0
   19.2448   -7.4472    3.7863 H   0  0  0  0  0  0  0  0  0  0  0  0
   22.1754  -11.1417    2.8569 H   0  0  0  0  0  0  0  0  0  0  0  0
   19.5761  -12.4702    3.8747 H   0  0  0  0  0  0  0  0  0  0  0  0
   18.7259  -13.2528    1.7880 H   0  0  0  0  0  0  0  0  0  0  0  0
   18.9907  -11.7876    1.1171 H   0  0  0  0  0  0  0  0  0  0  0  0
   20.2537  -12.7211    1.5647 H   0  0  0  0  0  0  0  0  0  0  0  0
   16.9568  -13.1237    3.4326 H   0  0  0  0  0  0  0  0  0  0  0  0
   16.1349  -11.9357    2.6713 H   0  0  0  0  0  0  0  0  0  0  0  0
   16.3288  -13.6602    5.5716 H   0  0  0  0  0  0  0  0  0  0  0  0
   15.5845  -11.7360    7.4187 H   0  0  0  0  0  0  0  0  0  0  0  0
   15.1409  -13.3046    7.5150 H   0  0  0  0  0  0  0  0  0  0  0  0
   13.4124  -10.2977    7.6388 H   0  0  0  0  0  0  0  0  0  0  0  0
   12.9953  -13.6822    5.2889 H   0  0  0  0  0  0  0  0  0  0  0  0
   10.8339  -12.3391    5.2712 H   0  0  0  0  0  0  0  0  0  0  0  0
  1  2  1  0  0  0  0
  2  3  2  0  0  0  0
  2  4  1  0  0  0  0
  3  5  1  0  0  0  0
  3  6  1  0  0  0  0
  4  7  2  0  0  0  0
  6  8  2  0  0  0  0
  7  9  1  0  0  0  0
  8 10  1  0  0  0  0
  9 11  2  0  0  0  0
  9 12  1  0  0  0  0
 10 13  1  0  0  0  0
 12 14  1  0  0  0  0
 14 15  1  0  0  0  0
 15 16  2  0  0  0  0
 15 17  1  0  0  0  0
 17 18  1  0  0  0  0
 18 19  1  0  0  0  0
 19 20  2  0  0  0  0
 19 21  1  0  0  0  0
 20 22  1  0  0  0  0
 21 23  2  0  0  0  0
  7  8  1  0  0  0  0
 10 12  1  0  0  0  0
 22 23  1  0  0  0  0
  4 24  1  0  0  0  0
  6 25  1  0  0  0  0
 10 26  1  0  0  0  0
 13 27  1  0  0  0  0
 13 28  1  0  0  0  0
 13 29  1  0  0  0  0
 14 30  1  0  0  0  0
 14 31  1  0  0  0  0
 17 32  1  0  0  0  0
 18 33  1  0  0  0  0
 18 34  1  0  0  0  0
 20 35  1  0  0  0  0
 21 36  1  0  0  0  0
 23 37  1  0  0  0  0
M  END
> <BIOSOLVEIT.HYDE_ESTIMATED_AFFINITY_LOWER_BOUNDARY [nM]>
39346466.220836

> <BIOSOLVEIT.HYDE_ESTIMATED_AFFINITY_UPPER_BOUNDARY [nM]>
3909304053.759313

> <BIOSOLVEIT.HYDE_LIGAND_EFFICIENCY range: ++, +, 0, -, -->
--

> <BIOSOLVEIT.HYDE_LIGAND_LIPOPHILIC_EFFICIENCY range: ++, +, 0, -, -->
--

> <BIOSOLVEIT.INTER_CLASH range: red, yellow, green>
yellow

> <BIOSOLVEIT.INTRA_CLASH range: red, yellow, green>
red

> <BIOSOLVEIT.LOGP>
3.4196

> <BIOSOLVEIT.MOLECULAR WEIGHT>
353.204

> <BIOSOLVEIT.MOLECULE_CHECKSUM>
LTIuMzIwMjk7MC4xMDA4ODI=

> <BIOSOLVEIT.TORSION_QUALITY range: red, yellow, green, not rotatable>
red

> <BIOSOLVEIT.TPSA>
62.55

> <BIOSOLVEIT.SEESAR_FAVORITE>
favorite

> <smc_score>
0.75

> <QED_score>
0.916

> <distance>
0.75

> <SimilarityPheSA_1>
0.632

> <Smiles>
CC1c2cc(Cl)c(Cl)cc2C(=O)N1CC(=O)NCc1ccoc1

> <Similarity_SkelSpheres>
0.589

> <Cluster No>
85.0

> <QueryID>
JAG-UCB-a3ef7265-20

> <SimilarityPheSA>
0.6316

> <Postera series>
3-aminopyridine-like

> <PDB_code>
Mpro-x10324

> <Approach>
DGM_exploratory_RL

> <ID>
20210628_200

> <SimilarityPheSA_2>
0.691

> <OPTIBRIUM.logD>
3.06234

> <OPTIBRIUM.BBB category>
-

> <OPTIBRIUM.logP>
3.06234

> <OPTIBRIUM.P-gp category>
no

> <OPTIBRIUM.logS>
1.60766

> <OPTIBRIUM.HIA category>
+

> <OPTIBRIUM.PPB90 category>
high

> <OPTIBRIUM.2D6 affinity category>
high

> <OPTIBRIUM.hERG pIC50>
4.11879

> <OPTIBRIUM.2C9 pKi>
5.29206

> <OPTIBRIUM.BBB log([brain]:[blood])>
-0.291174

> <OPTIBRIUM.logS @ pH7.4>
1.60766

$$$$
Compound 930_1_2
haSeeSAR  07122114523D 1   1.00000     0.00000     0
SeeSAR 11.0.2 hazemaj
 37 39  0  0  0  0            999 V2000
   20.5286   -6.9999    3.6572 Cl  0  0  0  0  0  0  0  0  0  0  0  0
   20.0081   -8.6581    3.2770 C   0  0  0  0  0  0  0  0  0  0  0  0
   20.9125   -9.5563    2.7206 C   0  0  0  0  0  0  0  0  0  0  0  0
   18.7021   -9.0519    3.5371 C   0  0  0  0  0  0  0  0  0  0  0  0
   22.5851   -9.0457    2.3909 Cl  0  0  0  0  0  0  0  0  0  0  0  0
   20.5320  -10.8587    2.4131 C   0  0  0  0  0  0  0  0  0  0  0  0
   18.3389  -10.3549    3.2256 C   0  0  0  0  0  0  0  0  0  0  0  0
   19.2240  -11.2566    2.6674 C   0  0  0  0  0  0  0  0  0  0  0  0
   17.0465  -10.9797    3.3947 C   0  0  0  0  0  0  0  0  0  0  0  0
   18.4576  -12.5600    2.4978 C   0  0  1  0  0  0  0  0  0  0  0  0
   16.0590  -10.4268    3.8495 O   0  0  0  0  0  0  0  0  0  0  0  0
   17.0916  -12.3059    2.9665 N   0  0  0  0  0  0  0  0  0  0  0  0
   18.3675  -12.9317    1.0243 C   0  0  0  0  0  0  0  0  0  0  0  0
   15.9719  -13.2618    2.9787 C   0  0  0  0  0  0  0  0  0  0  0  0
   15.4678  -13.4335    4.4024 C   0  0  0  0  0  0  0  0  0  0  0  0
   16.2257  -13.2351    5.3519 O   0  0  0  0  0  0  0  0  0  0  0  0
   14.2143  -13.7961    4.6211 N   0  0  0  0  0  0  0  0  0  0  0  0
   13.7268  -13.9621    5.9980 C   0  0  0  0  0  0  0  0  0  0  0  0
   13.1123  -12.6581    6.4784 C   0  0  0  0  0  0  0  0  0  0  0  0
   12.1049  -11.9648    5.8753 C   0  0  0  0  0  0  0  0  0  0  0  0
   13.4719  -11.9319    7.6338 C   0  0  0  0  0  0  0  0  0  0  0  0
   11.8463  -10.8877    6.5946 O   0  0  0  0  0  0  0  0  0  0  0  0
   12.6526  -10.8451    7.6468 C   0  0  0  0  0  0  0  0  0  0  0  0
   18.0425   -8.4155    3.9369 H   0  0  0  0  0  0  0  0  0  0  0  0
   21.1890  -11.4991    2.0154 H   0  0  0  0  0  0  0  0  0  0  0  0
   18.8840  -13.2949    3.0249 H   0  0  0  0  0  0  0  0  0  0  0  0
   17.8620  -13.7891    0.9271 H   0  0  0  0  0  0  0  0  0  0  0  0
   17.8924  -12.2064    0.5259 H   0  0  0  0  0  0  0  0  0  0  0  0
   19.2887  -13.0439    0.6518 H   0  0  0  0  0  0  0  0  0  0  0  0
   16.2833  -14.1445    2.6267 H   0  0  0  0  0  0  0  0  0  0  0  0
   15.2316  -12.9155    2.4025 H   0  0  0  0  0  0  0  0  0  0  0  0
   13.5987  -13.9573    3.8498 H   0  0  0  0  0  0  0  0  0  0  0  0
   14.4902  -14.2105    6.5942 H   0  0  0  0  0  0  0  0  0  0  0  0
   13.0362  -14.6849    6.0221 H   0  0  0  0  0  0  0  0  0  0  0  0
   11.6398  -12.2278    5.0301 H   0  0  0  0  0  0  0  0  0  0  0  0
   14.1787  -12.1660    8.3013 H   0  0  0  0  0  0  0  0  0  0  0  0
   12.6576  -10.1262    8.3418 H   0  0  0  0  0  0  0  0  0  0  0  0
  1  2  1  0  0  0  0
  2  3  2  0  0  0  0
  2  4  1  0  0  0  0
  3  5  1  0  0  0  0
  3  6  1  0  0  0  0
  4  7  2  0  0  0  0
  6  8  2  0  0  0  0
  7  9  1  0  0  0  0
  8 10  1  0  0  0  0
  9 11  2  0  0  0  0
  9 12  1  0  0  0  0
 10 13  1  0  0  0  0
 12 14  1  0  0  0  0
 14 15  1  0  0  0  0
 15 16  2  0  0  0  0
 15 17  1  0  0  0  0
 17 18  1  0  0  0  0
 18 19  1  0  0  0  0
 19 20  2  0  0  0  0
 19 21  1  0  0  0  0
 20 22  1  0  0  0  0
 21 23  2  0  0  0  0
  7  8  1  0  0  0  0
 10 12  1  0  0  0  0
 22 23  1  0  0  0  0
  4 24  1  0  0  0  0
  6 25  1  0  0  0  0
 10 26  1  0  0  0  0
 13 27  1  0  0  0  0
 13 28  1  0  0  0  0
 13 29  1  0  0  0  0
 14 30  1  0  0  0  0
 14 31  1  0  0  0  0
 17 32  1  0  0  0  0
 18 33  1  0  0  0  0
 18 34  1  0  0  0  0
 20 35  1  0  0  0  0
 21 36  1  0  0  0  0
 23 37  1  0  0  0  0
M  END
> <BIOSOLVEIT.HYDE_ESTIMATED_AFFINITY_LOWER_BOUNDARY [nM]>
17587551.150182

> <BIOSOLVEIT.HYDE_ESTIMATED_AFFINITY_UPPER_BOUNDARY [nM]>
1747427192.602538

> <BIOSOLVEIT.HYDE_LIGAND_EFFICIENCY range: ++, +, 0, -, -->
--

> <BIOSOLVEIT.HYDE_LIGAND_LIPOPHILIC_EFFICIENCY range: ++, +, 0, -, -->
--

> <BIOSOLVEIT.INTER_CLASH range: red, yellow, green>
yellow

> <BIOSOLVEIT.INTRA_CLASH range: red, yellow, green>
green

> <BIOSOLVEIT.LOGP>
3.4196

> <BIOSOLVEIT.MOLECULAR WEIGHT>
353.204

> <BIOSOLVEIT.MOLECULE_CHECKSUM>
LTQuMzE2Mzg7MC4xODc2Njk=

> <BIOSOLVEIT.TORSION_QUALITY range: red, yellow, green, not rotatable>
green

> <BIOSOLVEIT.TPSA>
62.55

> <BIOSOLVEIT.SEESAR_FAVORITE>
favorite

> <smc_score>
0.75

> <QED_score>
0.916

> <distance>
0.75

> <SimilarityPheSA_1>
0.632

> <Smiles>
CC1c2cc(Cl)c(Cl)cc2C(=O)N1CC(=O)NCc1ccoc1

> <Similarity_SkelSpheres>
0.589

> <Cluster No>
85.0

> <QueryID>
JAG-UCB-a3ef7265-20

> <SimilarityPheSA>
0.6316

> <Postera series>
3-aminopyridine-like

> <PDB_code>
Mpro-x10324

> <Approach>
DGM_exploratory_RL

> <ID>
20210628_200

> <SimilarityPheSA_2>
0.691

> <OPTIBRIUM.logD>
3.06234

> <OPTIBRIUM.BBB category>
-

> <OPTIBRIUM.logP>
3.06234

> <OPTIBRIUM.P-gp category>
no

> <OPTIBRIUM.logS>
1.60766

> <OPTIBRIUM.HIA category>
+

> <OPTIBRIUM.PPB90 category>
high

> <OPTIBRIUM.2D6 affinity category>
high

> <OPTIBRIUM.hERG pIC50>
4.11879

> <OPTIBRIUM.2C9 pKi>
5.29206

> <OPTIBRIUM.BBB log([brain]:[blood])>
-0.291174

> <OPTIBRIUM.logS @ pH7.4>
1.60766

$$$$
Compound 930_1_3
haSeeSAR  07122114523D 1   1.00000     0.00000     0
SeeSAR 11.0.2 hazemaj
 37 39  0  0  0  0            999 V2000
   20.5423   -7.0011    3.6781 Cl  0  0  0  0  0  0  0  0  0  0  0  0
   20.0203   -8.6558    3.2849 C   0  0  0  0  0  0  0  0  0  0  0  0
   20.9238   -9.5503    2.7211 C   0  0  0  0  0  0  0  0  0  0  0  0
   18.7140   -9.0506    3.5423 C   0  0  0  0  0  0  0  0  0  0  0  0
   22.5967   -9.0385    2.3949 Cl  0  0  0  0  0  0  0  0  0  0  0  0
   20.5421  -10.8499    2.4034 C   0  0  0  0  0  0  0  0  0  0  0  0
   18.3496  -10.3508    3.2205 C   0  0  0  0  0  0  0  0  0  0  0  0
   19.2338  -11.2487    2.6549 C   0  0  0  0  0  0  0  0  0  0  0  0
   17.0568  -10.9758    3.3850 C   0  0  0  0  0  0  0  0  0  0  0  0
   18.4663  -12.5501    2.4751 C   0  0  1  0  0  0  0  0  0  0  0  0
   16.0699  -10.4257    3.8445 O   0  0  0  0  0  0  0  0  0  0  0  0
   17.1006  -12.2986    2.9463 N   0  0  0  0  0  0  0  0  0  0  0  0
   18.3755  -12.9100    0.9988 C   0  0  0  0  0  0  0  0  0  0  0  0
   15.9802  -13.2537    2.9513 C   0  0  0  0  0  0  0  0  0  0  0  0
   15.4713  -13.4303    4.3727 C   0  0  0  0  0  0  0  0  0  0  0  0
   16.2204  -13.2161    5.3257 O   0  0  0  0  0  0  0  0  0  0  0  0
   14.2232  -13.8141    4.5855 N   0  0  0  0  0  0  0  0  0  0  0  0
   13.7310  -13.9850    5.9601 C   0  0  0  0  0  0  0  0  0  0  0  0
   13.1218  -12.6804    6.4457 C   0  0  0  0  0  0  0  0  0  0  0  0
   12.1505  -11.9558    5.8208 C   0  0  0  0  0  0  0  0  0  0  0  0
   13.4502  -11.9856    7.6295 C   0  0  0  0  0  0  0  0  0  0  0  0
   11.8837  -10.8897    6.5534 O   0  0  0  0  0  0  0  0  0  0  0  0
   12.6502  -10.8845    7.6357 C   0  0  0  0  0  0  0  0  0  0  0  0
   18.0551   -8.4168    3.9473 H   0  0  0  0  0  0  0  0  0  0  0  0
   21.1985  -11.4876    2.0003 H   0  0  0  0  0  0  0  0  0  0  0  0
   18.8923  -13.2895    2.9963 H   0  0  0  0  0  0  0  0  0  0  0  0
   17.8692  -13.7662    0.8950 H   0  0  0  0  0  0  0  0  0  0  0  0
   17.9008  -12.1803    0.5063 H   0  0  0  0  0  0  0  0  0  0  0  0
   19.2965  -13.0200    0.6252 H   0  0  0  0  0  0  0  0  0  0  0  0
   16.2920  -14.1352    2.5969 H   0  0  0  0  0  0  0  0  0  0  0  0
   15.2421  -12.9046    2.3739 H   0  0  0  0  0  0  0  0  0  0  0  0
   13.6147  -13.9881    3.8113 H   0  0  0  0  0  0  0  0  0  0  0  0
   14.4914  -14.2404    6.5571 H   0  0  0  0  0  0  0  0  0  0  0  0
   13.0366  -14.7043    5.9785 H   0  0  0  0  0  0  0  0  0  0  0  0
   11.7132  -12.1921    4.9530 H   0  0  0  0  0  0  0  0  0  0  0  0
   14.1269  -12.2470    8.3178 H   0  0  0  0  0  0  0  0  0  0  0  0
   12.6416  -10.1808    8.3461 H   0  0  0  0  0  0  0  0  0  0  0  0
  1  2  1  0  0  0  0
  2  3  2  0  0  0  0
  2  4  1  0  0  0  0
  3  5  1  0  0  0  0
  3  6  1  0  0  0  0
  4  7  2  0  0  0  0
  6  8  2  0  0  0  0
  7  9  1  0  0  0  0
  8 10  1  0  0  0  0
  9 11  2  0  0  0  0
  9 12  1  0  0  0  0
 10 13  1  0  0  0  0
 12 14  1  0  0  0  0
 14 15  1  0  0  0  0
 15 16  2  0  0  0  0
 15 17  1  0  0  0  0
 17 18  1  0  0  0  0
 18 19  1  0  0  0  0
 19 20  2  0  0  0  0
 19 21  1  0  0  0  0
 20 22  1  0  0  0  0
 21 23  2  0  0  0  0
  7  8  1  0  0  0  0
 10 12  1  0  0  0  0
 22 23  1  0  0  0  0
  4 24  1  0  0  0  0
  6 25  1  0  0  0  0
 10 26  1  0  0  0  0
 13 27  1  0  0  0  0
 13 28  1  0  0  0  0
 13 29  1  0  0  0  0
 14 30  1  0  0  0  0
 14 31  1  0  0  0  0
 17 32  1  0  0  0  0
 18 33  1  0  0  0  0
 18 34  1  0  0  0  0
 20 35  1  0  0  0  0
 21 36  1  0  0  0  0
 23 37  1  0  0  0  0
M  END
> <BIOSOLVEIT.HYDE_ESTIMATED_AFFINITY_LOWER_BOUNDARY [nM]>
3417350.671663

> <BIOSOLVEIT.HYDE_ESTIMATED_AFFINITY_UPPER_BOUNDARY [nM]>
339533994.205921

> <BIOSOLVEIT.HYDE_LIGAND_EFFICIENCY range: ++, +, 0, -, -->
--

> <BIOSOLVEIT.HYDE_LIGAND_LIPOPHILIC_EFFICIENCY range: ++, +, 0, -, -->
--

> <BIOSOLVEIT.INTER_CLASH range: red, yellow, green>
yellow

> <BIOSOLVEIT.INTRA_CLASH range: red, yellow, green>
green

> <BIOSOLVEIT.LOGP>
3.4196

> <BIOSOLVEIT.MOLECULAR WEIGHT>
353.204

> <BIOSOLVEIT.MOLECULE_CHECKSUM>
LTguMzc3NzI7MC4zNjQyNDk=

> <BIOSOLVEIT.TORSION_QUALITY range: red, yellow, green, not rotatable>
green

> <BIOSOLVEIT.TPSA>
62.55

> <BIOSOLVEIT.SEESAR_FAVORITE>
favorite

> <smc_score>
0.75

> <QED_score>
0.916

> <distance>
0.75

> <SimilarityPheSA_1>
0.632

> <Smiles>
CC1c2cc(Cl)c(Cl)cc2C(=O)N1CC(=O)NCc1ccoc1

> <Similarity_SkelSpheres>
0.589

> <Cluster No>
85.0

> <QueryID>
JAG-UCB-a3ef7265-20

> <SimilarityPheSA>
0.6316

> <Postera series>
3-aminopyridine-like

> <PDB_code>
Mpro-x10324

> <Approach>
DGM_exploratory_RL

> <ID>
20210628_200

> <SimilarityPheSA_2>
0.691

> <OPTIBRIUM.logD>
3.06234

> <OPTIBRIUM.BBB category>
-

> <OPTIBRIUM.logP>
3.06234

> <OPTIBRIUM.P-gp category>
no

> <OPTIBRIUM.logS>
1.60766

> <OPTIBRIUM.HIA category>
+

> <OPTIBRIUM.PPB90 category>
high

> <OPTIBRIUM.2D6 affinity category>
high

> <OPTIBRIUM.hERG pIC50>
4.11879

> <OPTIBRIUM.2C9 pKi>
5.29206

> <OPTIBRIUM.BBB log([brain]:[blood])>
-0.291174

> <OPTIBRIUM.logS @ pH7.4>
1.60766

$$$$
Compound 965_1_01
haSeeSAR  07122114523D 1   1.00000     0.00000     0
SeeSAR 11.0.2 hazemaj
 46 47  0  0  0  0            999 V2000
   23.0660   -8.3604    4.3769 Cl  0  0  0  0  0  0  0  0  0  0  0  0
   21.3960   -8.7006    3.8636 C   0  0  0  0  0  0  0  0  0  0  0  0
   20.8712   -9.9826    3.9922 C   0  0  0  0  0  0  0  0  0  0  0  0
   20.6109   -7.6828    3.3305 C   0  0  0  0  0  0  0  0  0  0  0  0
   21.6290  -10.9735    4.5083 O   0  0  0  0  0  0  0  0  0  0  0  0
   19.5646  -10.2374    3.5873 C   0  0  0  0  0  0  0  0  0  0  0  0
   21.2885   -6.0449    3.1678 Cl  0  0  0  0  0  0  0  0  0  0  0  0
   19.3039   -7.9353    2.9261 C   0  0  0  0  0  0  0  0  0  0  0  0
   21.7564  -11.1104    5.9160 C   0  0  0  0  0  0  0  0  0  0  0  0
   18.7818   -9.2180    3.0550 C   0  0  0  0  0  0  0  0  0  0  0  0
   18.9850  -11.6363    3.7252 C   0  0  0  0  0  0  0  0  0  0  0  0
   18.0125  -11.6573    4.8273 N   0  0  0  0  0  0  0  0  0  0  0  0
   16.7270  -11.4675    4.5789 C   0  0  0  0  0  0  0  0  0  0  0  0
   18.4684  -11.8892    6.2055 C   0  0  0  0  0  0  0  0  0  0  0  0
   16.1740  -10.4334    4.9532 O   0  0  0  0  0  0  0  0  0  0  0  0
   15.9330  -12.5262    3.8313 C   0  0  0  0  0  0  0  0  0  0  0  0
   14.6516  -11.9118    3.2920 C   0  0  0  0  0  0  0  0  0  0  0  0
   13.6977  -11.7201    4.3951 N   0  0  0  0  0  0  0  0  0  0  0  0
   13.2038  -10.5789    4.8120 N   0  0  0  0  0  0  0  0  0  0  0  0
   13.1649  -12.6874    5.1794 C   0  0  0  0  0  0  0  0  0  0  0  0
   12.4123  -10.7824    5.7792 N   0  0  0  0  0  0  0  0  0  0  0  0
   12.3763  -12.0724    6.0285 N   0  0  0  0  0  0  0  0  0  0  0  0
   13.4301  -14.1821    5.0940 C   0  0  0  0  0  0  0  0  0  0  0  0
   13.4287  -14.6145    3.6368 C   0  0  0  0  0  0  0  0  0  0  0  0
   14.7830  -14.4929    5.7134 C   0  0  0  0  0  0  0  0  0  0  0  0
   18.7437   -7.1995    2.5454 H   0  0  0  0  0  0  0  0  0  0  0  0
   22.3486  -11.8891    6.1230 H   0  0  0  0  0  0  0  0  0  0  0  0
   22.1564  -10.2769    6.2972 H   0  0  0  0  0  0  0  0  0  0  0  0
   20.8538  -11.2615    6.3192 H   0  0  0  0  0  0  0  0  0  0  0  0
   17.8437   -9.4075    2.7650 H   0  0  0  0  0  0  0  0  0  0  0  0
   19.7215  -12.2846    3.9180 H   0  0  0  0  0  0  0  0  0  0  0  0
   18.5289  -11.8936    2.8733 H   0  0  0  0  0  0  0  0  0  0  0  0
   17.6828  -11.8715    6.8239 H   0  0  0  0  0  0  0  0  0  0  0  0
   18.9174  -12.7809    6.2625 H   0  0  0  0  0  0  0  0  0  0  0  0
   19.1152  -11.1730    6.4677 H   0  0  0  0  0  0  0  0  0  0  0  0
   15.7071  -13.2752    4.4542 H   0  0  0  0  0  0  0  0  0  0  0  0
   16.4796  -12.8781    3.0714 H   0  0  0  0  0  0  0  0  0  0  0  0
   14.2518  -12.5216    2.6077 H   0  0  0  0  0  0  0  0  0  0  0  0
   14.8570  -11.0281    2.8715 H   0  0  0  0  0  0  0  0  0  0  0  0
   12.7154  -14.6763    5.5891 H   0  0  0  0  0  0  0  0  0  0  0  0
   13.6031  -15.5975    3.5806 H   0  0  0  0  0  0  0  0  0  0  0  0
   12.5386  -14.4101    3.2294 H   0  0  0  0  0  0  0  0  0  0  0  0
   14.1433  -14.1203    3.1417 H   0  0  0  0  0  0  0  0  0  0  0  0
   14.9574  -15.4759    5.6572 H   0  0  0  0  0  0  0  0  0  0  0  0
   15.4976  -13.9987    5.2184 H   0  0  0  0  0  0  0  0  0  0  0  0
   14.7840  -14.2084    6.6720 H   0  0  0  0  0  0  0  0  0  0  0  0
  1  2  1  0  0  0  0
  2  3  2  0  0  0  0
  2  4  1  0  0  0  0
  3  5  1  0  0  0  0
  3  6  1  0  0  0  0
  4  7  1  0  0  0  0
  4  8  2  0  0  0  0
  5  9  1  0  0  0  0
  6 10  2  0  0  0  0
  6 11  1  0  0  0  0
 11 12  1  0  0  0  0
 12 13  1  0  0  0  0
 12 14  1  0  0  0  0
 13 15  2  0  0  0  0
 13 16  1  0  0  0  0
 16 17  1  0  0  0  0
 17 18  1  0  0  0  0
 18 19  1  0  0  0  0
 18 20  1  0  0  0  0
 19 21  2  0  0  0  0
 20 22  2  0  0  0  0
 20 23  1  0  0  0  0
 23 24  1  0  0  0  0
 23 25  1  0  0  0  0
  8 10  1  0  0  0  0
 21 22  1  0  0  0  0
  8 26  1  0  0  0  0
  9 27  1  0  0  0  0
  9 28  1  0  0  0  0
  9 29  1  0  0  0  0
 10 30  1  0  0  0  0
 11 31  1  0  0  0  0
 11 32  1  0  0  0  0
 14 33  1  0  0  0  0
 14 34  1  0  0  0  0
 14 35  1  0  0  0  0
 16 36  1  0  0  0  0
 16 37  1  0  0  0  0
 17 38  1  0  0  0  0
 17 39  1  0  0  0  0
 23 40  1  0  0  0  0
 24 41  1  0  0  0  0
 24 42  1  0  0  0  0
 24 43  1  0  0  0  0
 25 44  1  0  0  0  0
 25 45  1  0  0  0  0
 25 46  1  0  0  0  0
M  END
> <BIOSOLVEIT.HYDE_ESTIMATED_AFFINITY_LOWER_BOUNDARY [nM]>
355515359123.922729

> <BIOSOLVEIT.HYDE_ESTIMATED_AFFINITY_UPPER_BOUNDARY [nM]>
35322552902117.484375

> <BIOSOLVEIT.HYDE_LIGAND_EFFICIENCY range: ++, +, 0, -, -->
--

> <BIOSOLVEIT.HYDE_LIGAND_LIPOPHILIC_EFFICIENCY range: ++, +, 0, -, -->
--

> <BIOSOLVEIT.INTER_CLASH range: red, yellow, green>
green

> <BIOSOLVEIT.INTRA_CLASH range: red, yellow, green>
yellow

> <BIOSOLVEIT.LOGP>
3.1606

> <BIOSOLVEIT.MOLECULAR WEIGHT>
386.281

> <BIOSOLVEIT.MOLECULE_CHECKSUM>
MjAuMjYwMzsw

> <BIOSOLVEIT.TORSION_QUALITY range: red, yellow, green, not rotatable>
yellow

> <BIOSOLVEIT.TPSA>
73.14

> <BIOSOLVEIT.SEESAR_FAVORITE>
favorite

> <smc_score>
0.75

> <QED_score>
0.731

> <distance>
0.75

> <SimilarityPheSA_1>
0.692

> <Smiles>
COc1c(CN(C)C(=O)CCn2nnnc2C(C)C)ccc(Cl)c1Cl

> <Similarity_SkelSpheres>
0.6

> <Cluster No>
99.0

> <QueryID>
JAN-GHE-5a013bed-2

> <SimilarityPheSA>
0.6919

> <Postera series>
3-aminopyridine-like

> <PDB_code>
Mpro-x10466

> <Approach>
DGM_exploratory_RL

> <ID>
20210628_235

> <SimilarityPheSA_2>
0.731

> <OPTIBRIUM.logD>
2.42595

> <OPTIBRIUM.BBB category>
-

> <OPTIBRIUM.logP>
2.42595

> <OPTIBRIUM.P-gp category>
yes

> <OPTIBRIUM.logS>
3.40093

> <OPTIBRIUM.HIA category>
+

> <OPTIBRIUM.PPB90 category>
low

> <OPTIBRIUM.2D6 affinity category>
medium

> <OPTIBRIUM.hERG pIC50>
5.07488

> <OPTIBRIUM.2C9 pKi>
4.81427

> <OPTIBRIUM.BBB log([brain]:[blood])>
-0.290169

> <OPTIBRIUM.logS @ pH7.4>
3.40093

$$$$
Compound 918_1_1
haSeeSAR  07122114523D 1   1.00000     0.00000     0
SeeSAR 11.0.2 hazemaj
 51 53  0  0  0  0            999 V2000
   21.2735   -5.8081    3.4401 F   0  0  0  0  0  0  0  0  0  0  0  0
   20.9142   -7.0806    3.2967 C   0  0  0  0  0  0  0  0  0  0  0  0
   19.7445   -7.4003    2.6161 C   0  0  0  0  0  0  0  0  0  0  0  0
   21.7172   -8.0807    3.8331 C   0  0  0  0  0  0  0  0  0  0  0  0
   18.9920   -6.4274    2.1106 F   0  0  0  0  0  0  0  0  0  0  0  0
   19.3558   -8.7260    2.4594 C   0  0  0  0  0  0  0  0  0  0  0  0
   21.3291   -9.4069    3.6759 C   0  0  0  0  0  0  0  0  0  0  0  0
   20.1595   -9.7259    2.9961 C   0  0  0  0  0  0  0  0  0  0  0  0
   22.0853  -10.3770    4.1814 F   0  0  0  0  0  0  0  0  0  0  0  0
   19.7471  -11.1802    2.8339 C   0  0  0  0  0  0  0  0  0  0  0  0
   18.3079  -11.2476    2.3495 C   0  0  0  0  0  0  0  0  0  0  0  0
   17.9852  -12.6286    1.9634 N   0  3  1  0  0  0  0  0  0  0  0  0
   18.0156  -13.5462    3.1183 C   0  0  1  0  0  0  0  0  0  0  0  0
   16.7185  -12.6831    1.2073 C   0  0  0  0  0  0  0  0  0  0  0  0
   16.9359  -13.2173    4.1411 C   0  0  0  0  0  0  0  0  0  0  0  0
   17.9467  -15.0044    2.6905 C   0  0  0  0  0  0  0  0  0  0  0  0
   15.4837  -12.6223    2.0985 C   0  0  2  0  0  0  0  0  0  0  0  0
   15.8204  -12.4812    3.5259 N   0  0  0  0  0  0  0  0  0  0  0  0
   14.6487  -13.8861    1.9651 C   0  0  0  0  0  0  0  0  0  0  0  0
   15.0662  -11.6131    4.3228 C   0  0  0  0  0  0  0  0  0  0  0  0
   15.5638  -10.5640    4.7315 O   0  0  0  0  0  0  0  0  0  0  0  0
   13.6323  -11.9654    4.6838 C   0  0  0  0  0  0  0  0  0  0  0  0
   13.3442  -11.5202    6.1120 C   0  0  0  0  0  0  0  0  0  0  0  0
   12.5752  -10.5104    6.4792 O   0  0  0  0  0  0  0  0  0  0  0  0
   13.8534  -12.1402    7.2144 C   0  0  0  0  0  0  0  0  0  0  0  0
   12.5500  -10.4301    7.8011 C   0  0  0  0  0  0  0  0  0  0  0  0
   13.3351  -11.4247    8.3163 C   0  0  0  0  0  0  0  0  0  0  0  0
   22.5583   -7.8509    4.3228 H   0  0  0  0  0  0  0  0  0  0  0  0
   18.5146   -8.9561    1.9702 H   0  0  0  0  0  0  0  0  0  0  0  0
   19.8249  -11.6488    3.7138 H   0  0  0  0  0  0  0  0  0  0  0  0
   20.3447  -11.6237    2.1661 H   0  0  0  0  0  0  0  0  0  0  0  0
   18.1936  -10.6453    1.5594 H   0  0  0  0  0  0  0  0  0  0  0  0
   17.6951  -10.9548    3.0834 H   0  0  0  0  0  0  0  0  0  0  0  0
   18.8973  -13.4161    3.5719 H   0  0  0  0  0  0  0  0  0  0  0  0
   16.6945  -13.5379    0.6890 H   0  0  0  0  0  0  0  0  0  0  0  0
   16.6925  -11.9088    0.5750 H   0  0  0  0  0  0  0  0  0  0  0  0
   17.3350  -12.6566    4.8667 H   0  0  0  0  0  0  0  0  0  0  0  0
   16.5874  -14.0693    4.5318 H   0  0  0  0  0  0  0  0  0  0  0  0
   17.9699  -15.5909    3.5000 H   0  0  0  0  0  0  0  0  0  0  0  0
   17.0975  -15.1643    2.1872 H   0  0  0  0  0  0  0  0  0  0  0  0
   18.7275  -15.2165    2.1027 H   0  0  0  0  0  0  0  0  0  0  0  0
   14.9268  -11.8393    1.8216 H   0  0  0  0  0  0  0  0  0  0  0  0
   13.8468  -13.8200    2.5588 H   0  0  0  0  0  0  0  0  0  0  0  0
   14.3527  -13.9914    1.0156 H   0  0  0  0  0  0  0  0  0  0  0  0
   15.1974  -14.6780    2.2329 H   0  0  0  0  0  0  0  0  0  0  0  0
   13.5035  -12.9544    4.6105 H   0  0  0  0  0  0  0  0  0  0  0  0
   13.0070  -11.5004    4.0572 H   0  0  0  0  0  0  0  0  0  0  0  0
   14.4635  -12.9323    7.2378 H   0  0  0  0  0  0  0  0  0  0  0  0
   12.0412   -9.7542    8.3343 H   0  0  0  0  0  0  0  0  0  0  0  0
   13.5081  -11.6091    9.2837 H   0  0  0  0  0  0  0  0  0  0  0  0
   18.7062  -12.9286    1.3387 H   0  0  0  0  0  0  0  0  0  0  0  0
  1  2  1  0  0  0  0
  2  3  2  0  0  0  0
  2  4  1  0  0  0  0
  3  5  1  0  0  0  0
  3  6  1  0  0  0  0
  4  7  2  0  0  0  0
  6  8  2  0  0  0  0
  7  9  1  0  0  0  0
  8 10  1  0  0  0  0
 10 11  1  0  0  0  0
 11 12  1  0  0  0  0
 12 13  1  0  0  0  0
 12 14  1  0  0  0  0
 13 15  1  0  0  0  0
 13 16  1  0  0  0  0
 14 17  1  0  0  0  0
 15 18  1  0  0  0  0
 17 19  1  0  0  0  0
 18 20  1  0  0  0  0
 20 21  2  0  0  0  0
 20 22  1  0  0  0  0
 22 23  1  0  0  0  0
 23 24  1  0  0  0  0
 23 25  2  0  0  0  0
 24 26  1  0  0  0  0
 25 27  1  0  0  0  0
  7  8  1  0  0  0  0
 17 18  1  0  0  0  0
 26 27  2  0  0  0  0
  4 28  1  0  0  0  0
  6 29  1  0  0  0  0
 10 30  1  0  0  0  0
 10 31  1  0  0  0  0
 11 32  1  0  0  0  0
 11 33  1  0  0  0  0
 13 34  1  0  0  0  0
 14 35  1  0  0  0  0
 14 36  1  0  0  0  0
 15 37  1  0  0  0  0
 15 38  1  0  0  0  0
 16 39  1  0  0  0  0
 16 40  1  0  0  0  0
 16 41  1  0  0  0  0
 17 42  1  0  0  0  0
 19 43  1  0  0  0  0
 19 44  1  0  0  0  0
 19 45  1  0  0  0  0
 22 46  1  0  0  0  0
 22 47  1  0  0  0  0
 25 48  1  0  0  0  0
 26 49  1  0  0  0  0
 27 50  1  0  0  0  0
 12 51  1  0  0  0  0
M  CHG  1  12   1
M  END
> <BIOSOLVEIT.HYDE_ESTIMATED_AFFINITY_LOWER_BOUNDARY [nM]>
104038.442775

> <BIOSOLVEIT.HYDE_ESTIMATED_AFFINITY_UPPER_BOUNDARY [nM]>
10336834.413667

> <BIOSOLVEIT.HYDE_LIGAND_EFFICIENCY range: ++, +, 0, -, -->
--

> <BIOSOLVEIT.HYDE_LIGAND_LIPOPHILIC_EFFICIENCY range: ++, +, 0, -, -->
--

> <BIOSOLVEIT.INTER_CLASH range: red, yellow, green>
green

> <BIOSOLVEIT.INTRA_CLASH range: red, yellow, green>
green

> <BIOSOLVEIT.LOGP>
1.9862

> <BIOSOLVEIT.MOLECULAR WEIGHT>
381.416

> <BIOSOLVEIT.MOLECULE_CHECKSUM>
LTE3LjAzMzk7MC42MzA4ODU=

> <BIOSOLVEIT.TORSION_QUALITY range: red, yellow, green, not rotatable>
red

> <BIOSOLVEIT.TPSA>
37.89

> <BIOSOLVEIT.SEESAR_FAVORITE>
favorite

> <smc_score>
0.625

> <QED_score>
0.746

> <distance>
0.773

> <SimilarityPheSA_1>
0.662

> <Smiles>
CC1CN(C(=O)Cc2ccco2)C(C)CN1CCc1cc(F)c(F)cc1F

> <Similarity_SkelSpheres>
0.544

> <Cluster No>
80.0

> <QueryID>
MAT-POS-bb423b95-1

> <SimilarityPheSA>
0.6619

> <Postera series>
3-aminopyridine-like

> <PDB_code>
Mpro-x11542

> <Approach>
DGM_exploratory_RL

> <ID>
20210628_188

> <SimilarityPheSA_2>
0.715

> <OPTIBRIUM.logD>
1.14943

> <OPTIBRIUM.BBB category>
+

> <OPTIBRIUM.logP>
3.0558

> <OPTIBRIUM.P-gp category>
yes

> <OPTIBRIUM.logS>
1.78014

> <OPTIBRIUM.HIA category>
+

> <OPTIBRIUM.PPB90 category>
high

> <OPTIBRIUM.2D6 affinity category>
medium

> <OPTIBRIUM.hERG pIC50>
6.17742

> <OPTIBRIUM.2C9 pKi>
5.38405

> <OPTIBRIUM.BBB log([brain]:[blood])>
-0.290865

> <OPTIBRIUM.logS @ pH7.4>
2.98551

$$$$
Compound 990_1_1
haSeeSAR  07122114523D 1   1.00000     0.00000     0
SeeSAR 11.0.2 hazemaj
 46 47  0  0  0  0            999 V2000
   22.5475  -10.8573    5.4342 Cl  0  0  0  0  0  0  0  0  0  0  0  0
   21.1432  -10.5131    4.3959 C   0  0  0  0  0  0  0  0  0  0  0  0
   20.2765  -11.5374    4.0282 C   0  0  0  0  0  0  0  0  0  0  0  0
   20.9100   -9.2164    3.9481 C   0  0  0  0  0  0  0  0  0  0  0  0
   20.4988  -12.7973    4.4597 O   0  0  0  0  0  0  0  0  0  0  0  0
   19.1821  -11.2573    3.2159 C   0  0  0  0  0  0  0  0  0  0  0  0
   22.0233   -7.9107    4.4213 Cl  0  0  0  0  0  0  0  0  0  0  0  0
   19.8158   -8.9340    3.1368 C   0  0  0  0  0  0  0  0  0  0  0  0
   19.9625  -13.2273    5.7022 C   0  0  0  0  0  0  0  0  0  0  0  0
   18.9511   -9.9599    2.7699 C   0  0  0  0  0  0  0  0  0  0  0  0
   18.2310  -12.3720    2.8105 C   0  0  0  0  0  0  0  0  0  0  0  0
   20.3568  -14.6741    5.9507 C   0  0  0  0  0  0  0  0  0  0  0  0
   16.8816  -11.8203    2.6218 N   0  0  0  0  0  0  0  0  0  0  0  0
   16.1771  -11.4227    3.6686 C   0  0  0  0  0  0  0  0  0  0  0  0
   16.3149  -11.7104    1.2699 C   0  0  0  0  0  0  0  0  0  0  0  0
   16.3483  -10.2958    4.1337 O   0  0  0  0  0  0  0  0  0  0  0  0
   15.1565  -12.3573    4.2973 C   0  0  0  0  0  0  0  0  0  0  0  0
   17.4391  -11.7200    0.2469 C   0  0  0  0  0  0  0  0  0  0  0  0
   15.3858  -12.8855    1.0128 C   0  0  0  0  0  0  0  0  0  0  0  0
   14.1901  -11.5725    5.0806 N   0  0  0  0  0  0  0  0  0  0  0  0
   13.1264  -10.9584    4.6210 N   0  0  0  0  0  0  0  0  0  0  0  0
   14.2308  -11.3401    6.4145 C   0  0  0  0  0  0  0  0  0  0  0  0
   12.5207  -10.3811    5.5714 N   0  0  0  0  0  0  0  0  0  0  0  0
   13.1848  -10.5961    6.6851 N   0  0  0  0  0  0  0  0  0  0  0  0
   15.2785  -11.8387    7.3973 C   0  0  0  0  0  0  0  0  0  0  0  0
   19.6522   -7.9999    2.8195 H   0  0  0  0  0  0  0  0  0  0  0  0
   18.9657  -13.1529    5.6787 H   0  0  0  0  0  0  0  0  0  0  0  0
   20.3225  -12.6527    6.4373 H   0  0  0  0  0  0  0  0  0  0  0  0
   18.1634   -9.7649    2.1856 H   0  0  0  0  0  0  0  0  0  0  0  0
   18.2090  -13.0686    3.5275 H   0  0  0  0  0  0  0  0  0  0  0  0
   18.5454  -12.7838    1.9552 H   0  0  0  0  0  0  0  0  0  0  0  0
   19.9792  -14.9768    6.8258 H   0  0  0  0  0  0  0  0  0  0  0  0
   19.9970  -15.2486    5.2157 H   0  0  0  0  0  0  0  0  0  0  0  0
   21.3538  -14.7485    5.9744 H   0  0  0  0  0  0  0  0  0  0  0  0
   15.8010  -10.8560    1.1923 H   0  0  0  0  0  0  0  0  0  0  0  0
   15.6240  -13.0061    4.8978 H   0  0  0  0  0  0  0  0  0  0  0  0
   14.6745  -12.8572    3.5776 H   0  0  0  0  0  0  0  0  0  0  0  0
   17.0535  -11.6452   -0.6728 H   0  0  0  0  0  0  0  0  0  0  0  0
   18.0503  -10.9468    0.4159 H   0  0  0  0  0  0  0  0  0  0  0  0
   17.9530  -12.5743    0.3244 H   0  0  0  0  0  0  0  0  0  0  0  0
   15.0003  -12.8108    0.0932 H   0  0  0  0  0  0  0  0  0  0  0  0
   15.8997  -13.7398    1.0903 H   0  0  0  0  0  0  0  0  0  0  0  0
   14.6463  -12.8792    1.6858 H   0  0  0  0  0  0  0  0  0  0  0  0
   15.0553  -11.5133    8.3161 H   0  0  0  0  0  0  0  0  0  0  0  0
   15.2916  -12.8386    7.3918 H   0  0  0  0  0  0  0  0  0  0  0  0
   16.1777  -11.4922    7.1301 H   0  0  0  0  0  0  0  0  0  0  0  0
  1  2  1  0  0  0  0
  2  3  2  0  0  0  0
  2  4  1  0  0  0  0
  3  5  1  0  0  0  0
  3  6  1  0  0  0  0
  4  7  1  0  0  0  0
  4  8  2  0  0  0  0
  5  9  1  0  0  0  0
  6 10  2  0  0  0  0
  6 11  1  0  0  0  0
  9 12  1  0  0  0  0
 11 13  1  0  0  0  0
 13 14  1  0  0  0  0
 13 15  1  0  0  0  0
 14 16  2  0  0  0  0
 14 17  1  0  0  0  0
 15 18  1  0  0  0  0
 15 19  1  0  0  0  0
 17 20  1  0  0  0  0
 20 21  1  0  0  0  0
 20 22  1  0  0  0  0
 21 23  2  0  0  0  0
 22 24  2  0  0  0  0
 22 25  1  0  0  0  0
  8 10  1  0  0  0  0
 23 24  1  0  0  0  0
  8 26  1  0  0  0  0
  9 27  1  0  0  0  0
  9 28  1  0  0  0  0
 10 29  1  0  0  0  0
 11 30  1  0  0  0  0
 11 31  1  0  0  0  0
 12 32  1  0  0  0  0
 12 33  1  0  0  0  0
 12 34  1  0  0  0  0
 15 35  1  0  0  0  0
 17 36  1  0  0  0  0
 17 37  1  0  0  0  0
 18 38  1  0  0  0  0
 18 39  1  0  0  0  0
 18 40  1  0  0  0  0
 19 41  1  0  0  0  0
 19 42  1  0  0  0  0
 19 43  1  0  0  0  0
 25 44  1  0  0  0  0
 25 45  1  0  0  0  0
 25 46  1  0  0  0  0
M  END
> <BIOSOLVEIT.HYDE_ESTIMATED_AFFINITY_LOWER_BOUNDARY [nM]>
704106275.564246

> <BIOSOLVEIT.HYDE_ESTIMATED_AFFINITY_UPPER_BOUNDARY [nM]>
69957121483.074081

> <BIOSOLVEIT.HYDE_LIGAND_EFFICIENCY range: ++, +, 0, -, -->
--

> <BIOSOLVEIT.HYDE_LIGAND_LIPOPHILIC_EFFICIENCY range: ++, +, 0, -, -->
--

> <BIOSOLVEIT.INTER_CLASH range: red, yellow, green>
green

> <BIOSOLVEIT.INTRA_CLASH range: red, yellow, green>
green

> <BIOSOLVEIT.LOGP>
3.12422

> <BIOSOLVEIT.MOLECULAR WEIGHT>
386.281

> <BIOSOLVEIT.MOLECULE_CHECKSUM>
NC44MzAzMjsw

> <BIOSOLVEIT.TORSION_QUALITY range: red, yellow, green, not rotatable>
yellow

> <BIOSOLVEIT.TPSA>
73.14

> <BIOSOLVEIT.SEESAR_FAVORITE>
favorite

> <smc_score>
0.875

> <QED_score>
0.731

> <distance>
0.731

> <SimilarityPheSA_1>
0.639

> <Smiles>
CCOc1c(CN(C(=O)Cn2nnnc2C)C(C)C)ccc(Cl)c1Cl

> <Similarity_SkelSpheres>
0.595

> <Cluster No>
110.0

> <QueryID>
JAG-UCB-a3ef7265-20

> <SimilarityPheSA>
0.639

> <Postera series>
3-aminopyridine-like

> <PDB_code>
Mpro-x10324

> <Approach>
DGM_exploratory_RL

> <ID>
20210628_260

> <SimilarityPheSA_2>
0.667

> <OPTIBRIUM.logD>
2.74057

> <OPTIBRIUM.BBB category>
-

> <OPTIBRIUM.logP>
2.74057

> <OPTIBRIUM.P-gp category>
yes

> <OPTIBRIUM.logS>
2.72396

> <OPTIBRIUM.HIA category>
+

> <OPTIBRIUM.PPB90 category>
high

> <OPTIBRIUM.2D6 affinity category>
medium

> <OPTIBRIUM.hERG pIC50>
5.02595

> <OPTIBRIUM.2C9 pKi>
4.95528

> <OPTIBRIUM.BBB log([brain]:[blood])>
-0.243234

> <OPTIBRIUM.logS @ pH7.4>
2.72396

$$$$
Compound 1069_1_001
haSeeSAR  07122114523D 1   1.00000     0.00000     0
SeeSAR 11.0.2 hazemaj
 36 38  0  0  0  0            999 V2000
   19.4433  -17.2488    8.8259 Cl  0  0  0  0  0  0  0  0  0  0  0  0
   18.8007  -15.6329    8.4442 C   0  0  0  0  0  0  0  0  0  0  0  0
   18.8365  -14.6259    9.4028 C   0  0  0  0  0  0  0  0  0  0  0  0
   18.2675  -15.3901    7.1835 C   0  0  0  0  0  0  0  0  0  0  0  0
   19.5236  -14.9629   11.0097 Cl  0  0  0  0  0  0  0  0  0  0  0  0
   18.3386  -13.3591    9.1146 C   0  0  0  0  0  0  0  0  0  0  0  0
   17.7709  -14.1225    6.9012 C   0  0  0  0  0  0  0  0  0  0  0  0
   17.8030  -13.1111    7.8552 C   0  0  0  0  0  0  0  0  0  0  0  0
   17.1846  -13.8390    5.5275 C   0  0  0  0  0  0  0  0  0  0  0  0
   17.5141  -12.4631    5.1286 N   0  0  0  0  0  0  0  0  0  0  0  0
   16.5553  -11.5578    5.0214 C   0  0  0  0  0  0  0  0  0  0  0  0
   18.9090  -12.0929    4.8488 C   0  0  0  0  0  0  0  0  0  0  0  0
   16.8406  -10.3611    4.9788 O   0  0  0  0  0  0  0  0  0  0  0  0
   15.1005  -11.9956    4.9509 C   0  0  1  0  0  0  0  0  0  0  0  0
   14.3156  -11.5834    6.1720 C   0  0  0  0  0  0  0  0  0  0  0  0
   14.3217  -11.2521    3.8912 C   0  0  0  0  0  0  0  0  0  0  0  0
   13.0758  -11.1537    5.7525 C   0  0  0  0  0  0  0  0  0  0  0  0
   14.6611  -11.5897    7.5189 C   0  0  0  0  0  0  0  0  0  0  0  0
   13.0093  -11.2629    4.4076 O   0  0  0  0  0  0  0  0  0  0  0  0
   12.2053  -10.7253    6.6742 N   0  0  0  0  0  0  0  0  0  0  0  0
   13.7295  -11.1455    8.4490 C   0  0  0  0  0  0  0  0  0  0  0  0
   12.4918  -10.7112    7.9840 C   0  0  0  0  0  0  0  0  0  0  0  0
   18.2416  -16.1132    6.4931 H   0  0  0  0  0  0  0  0  0  0  0  0
   18.3655  -12.6357    9.8045 H   0  0  0  0  0  0  0  0  0  0  0  0
   17.4407  -12.2053    7.6356 H   0  0  0  0  0  0  0  0  0  0  0  0
   16.1910  -13.9477    5.5603 H   0  0  0  0  0  0  0  0  0  0  0  0
   17.5683  -14.4798    4.8626 H   0  0  0  0  0  0  0  0  0  0  0  0
   18.9528  -11.1270    4.5937 H   0  0  0  0  0  0  0  0  0  0  0  0
   19.4651  -12.2474    5.6655 H   0  0  0  0  0  0  0  0  0  0  0  0
   19.2580  -12.6525    4.0971 H   0  0  0  0  0  0  0  0  0  0  0  0
   15.0363  -12.9833    4.8076 H   0  0  0  0  0  0  0  0  0  0  0  0
   14.3670  -11.7254    3.0114 H   0  0  0  0  0  0  0  0  0  0  0  0
   14.6597  -10.3170    3.7844 H   0  0  0  0  0  0  0  0  0  0  0  0
   15.5626  -11.9078    7.8123 H   0  0  0  0  0  0  0  0  0  0  0  0
   13.9426  -11.1380    9.4260 H   0  0  0  0  0  0  0  0  0  0  0  0
   11.8070  -10.3842    8.6353 H   0  0  0  0  0  0  0  0  0  0  0  0
  1  2  1  0  0  0  0
  2  3  2  0  0  0  0
  2  4  1  0  0  0  0
  3  5  1  0  0  0  0
  3  6  1  0  0  0  0
  4  7  2  0  0  0  0
  6  8  2  0  0  0  0
  7  9  1  0  0  0  0
  9 10  1  0  0  0  0
 10 11  1  0  0  0  0
 10 12  1  0  0  0  0
 11 13  2  0  0  0  0
 11 14  1  0  0  0  0
 14 15  1  0  0  0  0
 14 16  1  0  0  0  0
 15 17  2  0  0  0  0
 15 18  1  0  0  0  0
 16 19  1  0  0  0  0
 17 20  1  0  0  0  0
 18 21  2  0  0  0  0
 20 22  2  0  0  0  0
  7  8  1  0  0  0  0
 17 19  1  0  0  0  0
 21 22  1  0  0  0  0
  4 23  1  0  0  0  0
  6 24  1  0  0  0  0
  8 25  1  0  0  0  0
  9 26  1  0  0  0  0
  9 27  1  0  0  0  0
 12 28  1  0  0  0  0
 12 29  1  0  0  0  0
 12 30  1  0  0  0  0
 14 31  1  0  0  0  0
 16 32  1  0  0  0  0
 16 33  1  0  0  0  0
 18 34  1  0  0  0  0
 21 35  1  0  0  0  0
 22 36  1  0  0  0  0
M  END
> <BIOSOLVEIT.HYDE_ESTIMATED_AFFINITY_LOWER_BOUNDARY [nM]>
60527610.633918

> <BIOSOLVEIT.HYDE_ESTIMATED_AFFINITY_UPPER_BOUNDARY [nM]>
6013775984.035854

> <BIOSOLVEIT.HYDE_LIGAND_EFFICIENCY range: ++, +, 0, -, -->
--

> <BIOSOLVEIT.HYDE_LIGAND_LIPOPHILIC_EFFICIENCY range: ++, +, 0, -, -->
--

> <BIOSOLVEIT.INTER_CLASH range: red, yellow, green>
green

> <BIOSOLVEIT.INTRA_CLASH range: red, yellow, green>
green

> <BIOSOLVEIT.LOGP>
3.523

> <BIOSOLVEIT.MOLECULAR WEIGHT>
337.205

> <BIOSOLVEIT.MOLECULE_CHECKSUM>
LTEuMjUyNjI7MC4wNTY5Mzcz

> <BIOSOLVEIT.TORSION_QUALITY range: red, yellow, green, not rotatable>
green

> <BIOSOLVEIT.TPSA>
42.43

> <BIOSOLVEIT.SEESAR_FAVORITE>
favorite

> <smc_score>
0.75

> <QED_score>
0.861

> <distance>
0.699

> <SimilarityPheSA_1>
0.645

> <Smiles>
CN(Cc1ccc(Cl)c(Cl)c1)C(=O)C1COc2ncccc21

> <Similarity_SkelSpheres>
0.665

> <Cluster No>
140.0

> <QueryID>
PET-UNK-c9c1e0d8-3

> <SimilarityPheSA>
0.6449

> <Postera series>
3-aminopyridine-like

> <PDB_code>
Mpro-x12587

> <Approach>
DGM_exploratory_RL

> <ID>
20210628_339

> <SimilarityPheSA_2>
0.82

> <OPTIBRIUM.logD>
2.29453

> <OPTIBRIUM.BBB category>
+

> <OPTIBRIUM.logP>
2.29453

> <OPTIBRIUM.P-gp category>
no

> <OPTIBRIUM.logS>
2.19945

> <OPTIBRIUM.HIA category>
+

> <OPTIBRIUM.PPB90 category>
high

> <OPTIBRIUM.2D6 affinity category>
medium

> <OPTIBRIUM.hERG pIC50>
4.74404

> <OPTIBRIUM.2C9 pKi>
5.05791

> <OPTIBRIUM.BBB log([brain]:[blood])>
-0.226548

> <OPTIBRIUM.logS @ pH7.4>
2.19945

$$$$
Compound 1069_1_002
haSeeSAR  07122114523D 1   1.00000     0.00000     0
SeeSAR 11.0.2 hazemaj
 36 38  0  0  0  0            999 V2000
   18.2173  -11.8605   10.4385 Cl  0  0  0  0  0  0  0  0  0  0  0  0
   18.2800  -13.1729    9.2371 C   0  0  0  0  0  0  0  0  0  0  0  0
   18.8678  -14.3897    9.5663 C   0  0  0  0  0  0  0  0  0  0  0  0
   17.7360  -12.9694    7.9742 C   0  0  0  0  0  0  0  0  0  0  0  0
   19.5579  -14.6243   11.1900 Cl  0  0  0  0  0  0  0  0  0  0  0  0
   18.9207  -15.4226    8.6357 C   0  0  0  0  0  0  0  0  0  0  0  0
   17.7921  -14.0049    7.0481 C   0  0  0  0  0  0  0  0  0  0  0  0
   18.3790  -15.2239    7.3701 C   0  0  0  0  0  0  0  0  0  0  0  0
   17.2018  -13.8002    5.6621 C   0  0  0  0  0  0  0  0  0  0  0  0
   17.5261  -12.4477    5.1862 N   0  0  0  0  0  0  0  0  0  0  0  0
   16.5664  -11.5480    5.0455 C   0  0  0  0  0  0  0  0  0  0  0  0
   18.9169  -12.0949    4.8667 C   0  0  0  0  0  0  0  0  0  0  0  0
   16.8490  -10.3518    4.9790 O   0  0  0  0  0  0  0  0  0  0  0  0
   15.1139  -11.9917    4.9657 C   0  0  1  0  0  0  0  0  0  0  0  0
   14.3188  -11.5796    6.1802 C   0  0  0  0  0  0  0  0  0  0  0  0
   14.3398  -11.2538    3.8986 C   0  0  0  0  0  0  0  0  0  0  0  0
   13.0803  -11.1558    5.7508 C   0  0  0  0  0  0  0  0  0  0  0  0
   14.6547  -11.5813    7.5295 C   0  0  0  0  0  0  0  0  0  0  0  0
   13.0238  -11.2685    4.4058 O   0  0  0  0  0  0  0  0  0  0  0  0
   12.2017  -10.7285    6.6653 N   0  0  0  0  0  0  0  0  0  0  0  0
   13.7149  -11.1385    8.4519 C   0  0  0  0  0  0  0  0  0  0  0  0
   12.4788  -10.7101    7.9771 C   0  0  0  0  0  0  0  0  0  0  0  0
   17.3126  -12.0953    7.7364 H   0  0  0  0  0  0  0  0  0  0  0  0
   19.3430  -16.2972    8.8738 H   0  0  0  0  0  0  0  0  0  0  0  0
   18.4114  -15.9578    6.6917 H   0  0  0  0  0  0  0  0  0  0  0  0
   16.2086  -13.9098    5.7033 H   0  0  0  0  0  0  0  0  0  0  0  0
   17.5859  -14.4760    5.0330 H   0  0  0  0  0  0  0  0  0  0  0  0
   18.9576  -11.1439    4.5601 H   0  0  0  0  0  0  0  0  0  0  0  0
   19.4849  -12.2067    5.6820 H   0  0  0  0  0  0  0  0  0  0  0  0
   19.2544  -12.6939    4.1405 H   0  0  0  0  0  0  0  0  0  0  0  0
   15.0546  -12.9799    4.8243 H   0  0  0  0  0  0  0  0  0  0  0  0
   14.3932  -11.7291    3.0204 H   0  0  0  0  0  0  0  0  0  0  0  0
   14.6749  -10.3177    3.7921 H   0  0  0  0  0  0  0  0  0  0  0  0
   15.5555  -11.8952    7.8301 H   0  0  0  0  0  0  0  0  0  0  0  0
   13.9211  -11.1277    9.4304 H   0  0  0  0  0  0  0  0  0  0  0  0
   11.7883  -10.3842    8.6227 H   0  0  0  0  0  0  0  0  0  0  0  0
  1  2  1  0  0  0  0
  2  3  2  0  0  0  0
  2  4  1  0  0  0  0
  3  5  1  0  0  0  0
  3  6  1  0  0  0  0
  4  7  2  0  0  0  0
  6  8  2  0  0  0  0
  7  9  1  0  0  0  0
  9 10  1  0  0  0  0
 10 11  1  0  0  0  0
 10 12  1  0  0  0  0
 11 13  2  0  0  0  0
 11 14  1  0  0  0  0
 14 15  1  0  0  0  0
 14 16  1  0  0  0  0
 15 17  2  0  0  0  0
 15 18  1  0  0  0  0
 16 19  1  0  0  0  0
 17 20  1  0  0  0  0
 18 21  2  0  0  0  0
 20 22  2  0  0  0  0
  7  8  1  0  0  0  0
 17 19  1  0  0  0  0
 21 22  1  0  0  0  0
  4 23  1  0  0  0  0
  6 24  1  0  0  0  0
  8 25  1  0  0  0  0
  9 26  1  0  0  0  0
  9 27  1  0  0  0  0
 12 28  1  0  0  0  0
 12 29  1  0  0  0  0
 12 30  1  0  0  0  0
 14 31  1  0  0  0  0
 16 32  1  0  0  0  0
 16 33  1  0  0  0  0
 18 34  1  0  0  0  0
 21 35  1  0  0  0  0
 22 36  1  0  0  0  0
M  END
> <BIOSOLVEIT.HYDE_ESTIMATED_AFFINITY_LOWER_BOUNDARY [nM]>
51071372.564120

> <BIOSOLVEIT.HYDE_ESTIMATED_AFFINITY_UPPER_BOUNDARY [nM]>
5074242822.097186

> <BIOSOLVEIT.HYDE_LIGAND_EFFICIENCY range: ++, +, 0, -, -->
--

> <BIOSOLVEIT.HYDE_LIGAND_LIPOPHILIC_EFFICIENCY range: ++, +, 0, -, -->
--

> <BIOSOLVEIT.INTER_CLASH range: red, yellow, green>
green

> <BIOSOLVEIT.INTRA_CLASH range: red, yellow, green>
green

> <BIOSOLVEIT.LOGP>
3.523

> <BIOSOLVEIT.MOLECULAR WEIGHT>
337.205

> <BIOSOLVEIT.MOLECULE_CHECKSUM>
LTEuNjczNzM7MC4wNzYwNzg4

> <BIOSOLVEIT.TORSION_QUALITY range: red, yellow, green, not rotatable>
green

> <BIOSOLVEIT.TPSA>
42.43

> <BIOSOLVEIT.SEESAR_FAVORITE>
favorite

> <smc_score>
0.75

> <QED_score>
0.861

> <distance>
0.699

> <SimilarityPheSA_1>
0.645

> <Smiles>
CN(Cc1ccc(Cl)c(Cl)c1)C(=O)C1COc2ncccc21

> <Similarity_SkelSpheres>
0.665

> <Cluster No>
140.0

> <QueryID>
PET-UNK-c9c1e0d8-3

> <SimilarityPheSA>
0.6449

> <Postera series>
3-aminopyridine-like

> <PDB_code>
Mpro-x12587

> <Approach>
DGM_exploratory_RL

> <ID>
20210628_339

> <SimilarityPheSA_2>
0.82

> <OPTIBRIUM.logD>
2.29453

> <OPTIBRIUM.BBB category>
+

> <OPTIBRIUM.logP>
2.29453

> <OPTIBRIUM.P-gp category>
no

> <OPTIBRIUM.logS>
2.19945

> <OPTIBRIUM.HIA category>
+

> <OPTIBRIUM.PPB90 category>
high

> <OPTIBRIUM.2D6 affinity category>
medium

> <OPTIBRIUM.hERG pIC50>
4.74404

> <OPTIBRIUM.2C9 pKi>
5.05791

> <OPTIBRIUM.BBB log([brain]:[blood])>
-0.226548

> <OPTIBRIUM.logS @ pH7.4>
2.19945

$$$$
Compound 1068_1_01
haSeeSAR  07122114523D 1   1.00000     0.00000     0
SeeSAR 11.0.2 hazemaj
 43 45  0  0  0  0            999 V2000
   18.8462  -16.7496    8.1775 Cl  0  0  0  0  0  0  0  0  0  0  0  0
   17.9261  -15.9401    6.8868 C   0  0  0  0  0  0  0  0  0  0  0  0
   18.3619  -14.7189    6.3849 C   0  0  0  0  0  0  0  0  0  0  0  0
   16.7735  -16.5371    6.3870 C   0  0  0  0  0  0  0  0  0  0  0  0
   19.8394  -13.9717    7.0384 Cl  0  0  0  0  0  0  0  0  0  0  0  0
   17.6537  -14.0746    5.3761 C   0  0  0  0  0  0  0  0  0  0  0  0
   16.0636  -15.8947    5.3781 C   0  0  0  0  0  0  0  0  0  0  0  0
   16.5015  -14.6734    4.8772 C   0  0  0  0  0  0  0  0  0  0  0  0
   14.9446  -16.4725    4.8925 O   0  0  0  0  0  0  0  0  0  0  0  0
   15.7253  -13.9723    3.7741 C   0  0  0  0  0  0  0  0  0  0  0  0
   14.4961  -17.7101    5.4250 C   0  0  0  0  0  0  0  0  0  0  0  0
   16.1628  -12.5720    3.6809 N   0  0  0  0  0  0  0  0  0  0  0  0
   13.1549  -18.0712    4.8075 C   0  0  0  0  0  0  0  0  0  0  0  0
   15.5383  -11.6362    4.3771 C   0  0  0  0  0  0  0  0  0  0  0  0
   17.2942  -12.2115    2.8145 C   0  0  0  0  0  0  0  0  0  0  0  0
   16.0453  -10.5216    4.5033 O   0  0  0  0  0  0  0  0  0  0  0  0
   14.1941  -11.9375    5.0213 C   0  0  1  0  0  0  0  0  0  0  0  0
   14.2397  -11.8289    6.5258 C   0  0  0  0  0  0  0  0  0  0  0  0
   13.1587  -10.8776    4.7261 C   0  0  0  0  0  0  0  0  0  0  0  0
   13.0775  -11.2163    6.9408 C   0  0  0  0  0  0  0  0  0  0  0  0
   15.2094  -12.2327    7.4368 C   0  0  0  0  0  0  0  0  0  0  0  0
   12.3187  -10.9426    5.8573 O   0  0  0  0  0  0  0  0  0  0  0  0
   12.9033  -11.0031    8.2503 N   0  0  0  0  0  0  0  0  0  0  0  0
   14.9916  -12.0024    8.7895 C   0  0  0  0  0  0  0  0  0  0  0  0
   13.8091  -11.3731    9.1672 C   0  0  0  0  0  0  0  0  0  0  0  0
   16.4599  -17.4156    6.7476 H   0  0  0  0  0  0  0  0  0  0  0  0
   17.9673  -13.1961    5.0156 H   0  0  0  0  0  0  0  0  0  0  0  0
   14.7479  -14.0030    3.9829 H   0  0  0  0  0  0  0  0  0  0  0  0
   15.8947  -14.4330    2.9029 H   0  0  0  0  0  0  0  0  0  0  0  0
   14.3957  -17.6295    6.4166 H   0  0  0  0  0  0  0  0  0  0  0  0
   15.1632  -18.4248    5.2145 H   0  0  0  0  0  0  0  0  0  0  0  0
   12.8392  -18.9428    5.1825 H   0  0  0  0  0  0  0  0  0  0  0  0
   12.4879  -17.3565    5.0180 H   0  0  0  0  0  0  0  0  0  0  0  0
   13.2554  -18.1518    3.8159 H   0  0  0  0  0  0  0  0  0  0  0  0
   17.4558  -11.2262    2.8699 H   0  0  0  0  0  0  0  0  0  0  0  0
   18.1130  -12.7010    3.1144 H   0  0  0  0  0  0  0  0  0  0  0  0
   17.0835  -12.4620    1.8695 H   0  0  0  0  0  0  0  0  0  0  0  0
   13.8642  -12.8396    4.7431 H   0  0  0  0  0  0  0  0  0  0  0  0
   12.6539  -11.0897    3.8892 H   0  0  0  0  0  0  0  0  0  0  0  0
   13.5805   -9.9750    4.6413 H   0  0  0  0  0  0  0  0  0  0  0  0
   16.0474  -12.6802    7.1244 H   0  0  0  0  0  0  0  0  0  0  0  0
   15.6660  -12.2813    9.4732 H   0  0  0  0  0  0  0  0  0  0  0  0
   13.6327  -11.1944   10.1352 H   0  0  0  0  0  0  0  0  0  0  0  0
  1  2  1  0  0  0  0
  2  3  2  0  0  0  0
  2  4  1  0  0  0  0
  3  5  1  0  0  0  0
  3  6  1  0  0  0  0
  4  7  2  0  0  0  0
  6  8  2  0  0  0  0
  7  9  1  0  0  0  0
  8 10  1  0  0  0  0
  9 11  1  0  0  0  0
 10 12  1  0  0  0  0
 11 13  1  0  0  0  0
 12 14  1  0  0  0  0
 12 15  1  0  0  0  0
 14 16  2  0  0  0  0
 14 17  1  0  0  0  0
 17 18  1  0  0  0  0
 17 19  1  0  0  0  0
 18 20  2  0  0  0  0
 18 21  1  0  0  0  0
 19 22  1  0  0  0  0
 20 23  1  0  0  0  0
 21 24  2  0  0  0  0
 23 25  2  0  0  0  0
  7  8  1  0  0  0  0
 20 22  1  0  0  0  0
 24 25  1  0  0  0  0
  4 26  1  0  0  0  0
  6 27  1  0  0  0  0
 10 28  1  0  0  0  0
 10 29  1  0  0  0  0
 11 30  1  0  0  0  0
 11 31  1  0  0  0  0
 13 32  1  0  0  0  0
 13 33  1  0  0  0  0
 13 34  1  0  0  0  0
 15 35  1  0  0  0  0
 15 36  1  0  0  0  0
 15 37  1  0  0  0  0
 17 38  1  0  0  0  0
 19 39  1  0  0  0  0
 19 40  1  0  0  0  0
 21 41  1  0  0  0  0
 24 42  1  0  0  0  0
 25 43  1  0  0  0  0
M  END
> <BIOSOLVEIT.HYDE_ESTIMATED_AFFINITY_LOWER_BOUNDARY [nM]>
14502719.912870

> <BIOSOLVEIT.HYDE_ESTIMATED_AFFINITY_UPPER_BOUNDARY [nM]>
1440930970.209840

> <BIOSOLVEIT.HYDE_LIGAND_EFFICIENCY range: ++, +, 0, -, -->
--

> <BIOSOLVEIT.HYDE_LIGAND_LIPOPHILIC_EFFICIENCY range: ++, +, 0, -, -->
--

> <BIOSOLVEIT.INTER_CLASH range: red, yellow, green>
green

> <BIOSOLVEIT.INTRA_CLASH range: red, yellow, green>
green

> <BIOSOLVEIT.LOGP>
3.9217

> <BIOSOLVEIT.MOLECULAR WEIGHT>
381.257

> <BIOSOLVEIT.MOLECULE_CHECKSUM>
LTQuNzk0NDY7MC4xOTE3Nzk=

> <BIOSOLVEIT.TORSION_QUALITY range: red, yellow, green, not rotatable>
green

> <BIOSOLVEIT.TPSA>
51.66

> <BIOSOLVEIT.SEESAR_FAVORITE>
favorite

> <smc_score>
0.938

> <QED_score>
0.788

> <distance>
0.729

> <SimilarityPheSA_1>
0.647

> <Smiles>
CCOc1cc(Cl)c(Cl)cc1CN(C)C(=O)C1COc2ncccc21

> <Similarity_SkelSpheres>
0.637

> <Cluster No>
140.0

> <QueryID>
JAN-GHE-5a013bed-2

> <SimilarityPheSA>
0.6474

> <Postera series>
3-aminopyridine-like

> <PDB_code>
Mpro-x10466

> <Approach>
DGM_exploratory_RL

> <ID>
20210628_338

> <SimilarityPheSA_2>
0.75

> <OPTIBRIUM.logD>
2.77492

> <OPTIBRIUM.BBB category>
-

> <OPTIBRIUM.logP>
2.77492

> <OPTIBRIUM.P-gp category>
yes

> <OPTIBRIUM.logS>
1.91517

> <OPTIBRIUM.HIA category>
+

> <OPTIBRIUM.PPB90 category>
high

> <OPTIBRIUM.2D6 affinity category>
medium

> <OPTIBRIUM.hERG pIC50>
4.97282

> <OPTIBRIUM.2C9 pKi>
5.38624

> <OPTIBRIUM.BBB log([brain]:[blood])>
-0.165166

> <OPTIBRIUM.logS @ pH7.4>
1.91517

$$$$
Compound 1076_1_1
haSeeSAR  07122114523D 1   1.00000     0.00000     0
SeeSAR 11.0.2 hazemaj
 41 43  0  0  0  0            999 V2000
   24.0145   -8.6841    3.6197 Cl  0  0  0  0  0  0  0  0  0  0  0  0
   22.4129   -9.4556    3.5414 C   0  0  0  0  0  0  0  0  0  0  0  0
   21.9470  -10.2009    4.6180 C   0  0  0  0  0  0  0  0  0  0  0  0
   21.6364   -9.3070    2.3969 C   0  0  0  0  0  0  0  0  0  0  0  0
   22.9582  -10.3782    6.0721 Cl  0  0  0  0  0  0  0  0  0  0  0  0
   20.6984  -10.8113    4.5719 C   0  0  0  0  0  0  0  0  0  0  0  0
   20.3872   -9.9164    2.3495 C   0  0  0  0  0  0  0  0  0  0  0  0
   19.9234  -10.6619    3.4272 C   0  0  0  0  0  0  0  0  0  0  0  0
   19.6351   -9.7807    1.2627 F   0  0  0  0  0  0  0  0  0  0  0  0
   18.5563  -11.3219    3.3571 C   0  0  0  0  0  0  0  0  0  0  0  0
   17.7299  -10.9051    4.5629 C   0  0  0  0  0  0  0  0  0  0  0  0
   16.8711  -10.0307    4.4479 O   0  0  0  0  0  0  0  0  0  0  0  0
   17.9337  -11.4822    5.7358 N   0  0  0  0  0  0  0  0  0  0  0  0
   17.1345  -11.0791    6.9019 C   0  0  0  0  0  0  0  0  0  0  0  0
   16.3958  -12.2887    7.4528 C   0  0  2  0  0  0  0  0  0  0  0  0
   15.3178  -12.7492    6.4891 C   0  0  0  0  0  0  0  0  0  0  0  0
   15.8506  -12.0676    8.8631 C   0  0  0  0  0  0  0  0  0  0  0  0
   14.2443  -11.7475    6.5067 N   0  0  0  0  0  0  0  0  0  0  0  0
   14.3924  -11.6340    8.9513 C   0  0  0  0  0  0  0  0  0  0  0  0
   13.7663  -11.1731    7.6353 C   0  0  0  0  0  0  0  0  0  0  0  0
   13.5358  -11.1765    5.4869 C   0  0  0  0  0  0  0  0  0  0  0  0
   12.8350  -10.3121    7.2893 N   0  0  0  0  0  0  0  0  0  0  0  0
   12.6861  -10.3080    5.9851 N   0  0  0  0  0  0  0  0  0  0  0  0
   13.7008  -11.4804    4.0065 C   0  0  0  0  0  0  0  0  0  0  0  0
   21.9707   -8.7712    1.6215 H   0  0  0  0  0  0  0  0  0  0  0  0
   20.3644  -11.3476    5.3471 H   0  0  0  0  0  0  0  0  0  0  0  0
   18.6657  -12.3159    3.3555 H   0  0  0  0  0  0  0  0  0  0  0  0
   18.0909  -11.0364    2.5193 H   0  0  0  0  0  0  0  0  0  0  0  0
   18.6312  -12.1925    5.8291 H   0  0  0  0  0  0  0  0  0  0  0  0
   16.4730  -10.3811    6.6275 H   0  0  0  0  0  0  0  0  0  0  0  0
   17.7380  -10.7074    7.6072 H   0  0  0  0  0  0  0  0  0  0  0  0
   17.0634  -13.0308    7.5148 H   0  0  0  0  0  0  0  0  0  0  0  0
   14.9596  -13.6370    6.7779 H   0  0  0  0  0  0  0  0  0  0  0  0
   15.6961  -12.8264    5.5667 H   0  0  0  0  0  0  0  0  0  0  0  0
   16.4075  -11.3611    9.2998 H   0  0  0  0  0  0  0  0  0  0  0  0
   15.9462  -12.9261    9.3669 H   0  0  0  0  0  0  0  0  0  0  0  0
   14.3341  -10.8775    9.6027 H   0  0  0  0  0  0  0  0  0  0  0  0
   13.8599  -12.4089    9.2920 H   0  0  0  0  0  0  0  0  0  0  0  0
   13.0593  -10.9240    3.4784 H   0  0  0  0  0  0  0  0  0  0  0  0
   14.6366  -11.2680    3.7249 H   0  0  0  0  0  0  0  0  0  0  0  0
   13.5152  -12.4493    3.8424 H   0  0  0  0  0  0  0  0  0  0  0  0
  1  2  1  0  0  0  0
  2  3  2  0  0  0  0
  2  4  1  0  0  0  0
  3  5  1  0  0  0  0
  3  6  1  0  0  0  0
  4  7  2  0  0  0  0
  6  8  2  0  0  0  0
  7  9  1  0  0  0  0
  8 10  1  0  0  0  0
 10 11  1  0  0  0  0
 11 12  2  0  0  0  0
 11 13  1  0  0  0  0
 13 14  1  0  0  0  0
 14 15  1  0  0  0  0
 15 16  1  0  0  0  0
 15 17  1  0  0  0  0
 16 18  1  0  0  0  0
 17 19  1  0  0  0  0
 18 20  1  0  0  0  0
 18 21  1  0  0  0  0
 20 22  2  0  0  0  0
 21 23  2  0  0  0  0
 21 24  1  0  0  0  0
  7  8  1  0  0  0  0
 19 20  1  0  0  0  0
 22 23  1  0  0  0  0
  4 25  1  0  0  0  0
  6 26  1  0  0  0  0
 10 27  1  0  0  0  0
 10 28  1  0  0  0  0
 13 29  1  0  0  0  0
 14 30  1  0  0  0  0
 14 31  1  0  0  0  0
 15 32  1  0  0  0  0
 16 33  1  0  0  0  0
 16 34  1  0  0  0  0
 17 35  1  0  0  0  0
 17 36  1  0  0  0  0
 19 37  1  0  0  0  0
 19 38  1  0  0  0  0
 24 39  1  0  0  0  0
 24 40  1  0  0  0  0
 24 41  1  0  0  0  0
M  END
> <BIOSOLVEIT.HYDE_ESTIMATED_AFFINITY_LOWER_BOUNDARY [nM]>
1409700.533905

> <BIOSOLVEIT.HYDE_ESTIMATED_AFFINITY_UPPER_BOUNDARY [nM]>
140062082.852661

> <BIOSOLVEIT.HYDE_LIGAND_EFFICIENCY range: ++, +, 0, -, -->
--

> <BIOSOLVEIT.HYDE_LIGAND_LIPOPHILIC_EFFICIENCY range: ++, +, 0, -, -->
--

> <BIOSOLVEIT.INTER_CLASH range: red, yellow, green>
green

> <BIOSOLVEIT.INTRA_CLASH range: red, yellow, green>
green

> <BIOSOLVEIT.LOGP>
2.95372

> <BIOSOLVEIT.MOLECULAR WEIGHT>
371.241

> <BIOSOLVEIT.MOLECULE_CHECKSUM>
LTEwLjU3Mjg7MC40NDA1MzQ=

> <BIOSOLVEIT.TORSION_QUALITY range: red, yellow, green, not rotatable>
yellow

> <BIOSOLVEIT.TPSA>
59.81

> <BIOSOLVEIT.SEESAR_FAVORITE>
favorite

> <smc_score>
0.75

> <QED_score>
0.841

> <distance>
0.725

> <SimilarityPheSA_1>
0.64

> <Smiles>
Cc1nnc2n1CC(CNC(=O)Cc1cc(Cl)c(Cl)cc1F)CC2

> <Similarity_SkelSpheres>
0.567

> <Cluster No>
143.0

> <QueryID>
ALP-POS-ce760d3f-2

> <SimilarityPheSA>
0.6398

> <Postera series>
3-aminopyridine-like

> <PDB_code>
Mpro-x12659

> <Approach>
DGM_exploratory_RL

> <ID>
20210628_346

> <SimilarityPheSA_2>
0.696

> <OPTIBRIUM.logD>
3.1348

> <OPTIBRIUM.BBB category>
-

> <OPTIBRIUM.logP>
3.1348

> <OPTIBRIUM.P-gp category>
no

> <OPTIBRIUM.logS>
1.64006

> <OPTIBRIUM.HIA category>
+

> <OPTIBRIUM.PPB90 category>
high

> <OPTIBRIUM.2D6 affinity category>
high

> <OPTIBRIUM.hERG pIC50>
4.90772

> <OPTIBRIUM.2C9 pKi>
5.28853

> <OPTIBRIUM.BBB log([brain]:[blood])>
-0.217184

> <OPTIBRIUM.logS @ pH7.4>
1.64006

$$$$
Compound 1098_1_001
haSeeSAR  07122114523D 1   1.00000     0.00000     0
SeeSAR 11.0.2 hazemaj
 41 43  0  0  0  0            999 V2000
   17.0268  -19.6577   -0.0561 Cl  0  0  0  0  0  0  0  0  0  0  0  0
   15.9179  -18.4586    0.6502 C   0  0  0  0  0  0  0  0  0  0  0  0
   15.7263  -17.2339    0.0214 C   0  0  0  0  0  0  0  0  0  0  0  0
   15.2492  -18.7573    1.8328 C   0  0  0  0  0  0  0  0  0  0  0  0
   16.5932  -16.8731   -1.4907 Cl  0  0  0  0  0  0  0  0  0  0  0  0
   14.8645  -16.2856    0.5614 C   0  0  0  0  0  0  0  0  0  0  0  0
   14.3865  -17.8100    2.3738 C   0  0  0  0  0  0  0  0  0  0  0  0
   14.1968  -16.5855    1.7436 C   0  0  0  0  0  0  0  0  0  0  0  0
   13.7405  -18.0836    3.5020 F   0  0  0  0  0  0  0  0  0  0  0  0
   13.2507  -15.5615    2.3502 C   0  0  0  0  0  0  0  0  0  0  0  0
   14.0303  -14.5209    3.0381 N   0  3  1  0  0  0  0  0  0  0  0  0
   15.1575  -15.1156    3.7625 C   0  0  0  0  0  0  0  0  0  0  0  0
   14.5232  -13.5813    2.0238 C   0  0  0  0  0  0  0  0  0  0  0  0
   15.8167  -14.0830    4.6668 C   0  0  0  0  0  0  0  0  0  0  0  0
   15.7872  -12.8959    2.5291 C   0  0  0  0  0  0  0  0  0  0  0  0
   15.7034  -12.7786    3.9898 N   0  0  0  0  0  0  0  0  0  0  0  0
   15.5369  -11.5667    4.6694 C   0  0  0  0  0  0  0  0  0  0  0  0
   16.2768  -10.6149    4.4208 O   0  0  0  0  0  0  0  0  0  0  0  0
   14.4927  -11.4323    5.6666 C   0  0  0  0  0  0  0  0  0  0  0  0
   13.2512  -10.8816    5.3661 C   0  0  0  0  0  0  0  0  0  0  0  0
   14.7282  -11.8623    6.9678 C   0  0  0  0  0  0  0  0  0  0  0  0
   12.3014  -10.7670    6.3063 N   0  0  0  0  0  0  0  0  0  0  0  0
   13.7337  -11.7378    7.9320 C   0  0  0  0  0  0  0  0  0  0  0  0
   12.5145  -11.1782    7.5650 C   0  0  0  0  0  0  0  0  0  0  0  0
   15.3865  -19.6379    2.2863 H   0  0  0  0  0  0  0  0  0  0  0  0
   14.7276  -15.4048    0.1082 H   0  0  0  0  0  0  0  0  0  0  0  0
   12.6463  -16.0136    3.0062 H   0  0  0  0  0  0  0  0  0  0  0  0
   12.7029  -15.1433    1.6256 H   0  0  0  0  0  0  0  0  0  0  0  0
   15.8301  -15.4532    3.1040 H   0  0  0  0  0  0  0  0  0  0  0  0
   14.8255  -15.8768    4.3197 H   0  0  0  0  0  0  0  0  0  0  0  0
   13.8221  -12.8923    1.8405 H   0  0  0  0  0  0  0  0  0  0  0  0
   14.7293  -14.0795    1.1816 H   0  0  0  0  0  0  0  0  0  0  0  0
   16.7794  -14.3143    4.8069 H   0  0  0  0  0  0  0  0  0  0  0  0
   15.3493  -14.0526    5.5504 H   0  0  0  0  0  0  0  0  0  0  0  0
   15.8629  -11.9858    2.1216 H   0  0  0  0  0  0  0  0  0  0  0  0
   16.5884  -13.4402    2.2800 H   0  0  0  0  0  0  0  0  0  0  0  0
   13.0640  -10.5665    4.4357 H   0  0  0  0  0  0  0  0  0  0  0  0
   15.6126  -12.2610    7.2103 H   0  0  0  0  0  0  0  0  0  0  0  0
   13.8921  -12.0444    8.8706 H   0  0  0  0  0  0  0  0  0  0  0  0
   11.7892  -11.0813    8.2467 H   0  0  0  0  0  0  0  0  0  0  0  0
   13.4401  -14.0349    3.6828 H   0  0  0  0  0  0  0  0  0  0  0  0
  1  2  1  0  0  0  0
  2  3  2  0  0  0  0
  2  4  1  0  0  0  0
  3  5  1  0  0  0  0
  3  6  1  0  0  0  0
  4  7  2  0  0  0  0
  6  8  2  0  0  0  0
  7  9  1  0  0  0  0
  8 10  1  0  0  0  0
 10 11  1  0  0  0  0
 11 12  1  0  0  0  0
 11 13  1  0  0  0  0
 12 14  1  0  0  0  0
 13 15  1  0  0  0  0
 14 16  1  0  0  0  0
 16 17  1  0  0  0  0
 17 18  2  0  0  0  0
 17 19  1  0  0  0  0
 19 20  2  0  0  0  0
 19 21  1  0  0  0  0
 20 22  1  0  0  0  0
 21 23  2  0  0  0  0
 22 24  2  0  0  0  0
  7  8  1  0  0  0  0
 15 16  1  0  0  0  0
 23 24  1  0  0  0  0
  4 25  1  0  0  0  0
  6 26  1  0  0  0  0
 10 27  1  0  0  0  0
 10 28  1  0  0  0  0
 12 29  1  0  0  0  0
 12 30  1  0  0  0  0
 13 31  1  0  0  0  0
 13 32  1  0  0  0  0
 14 33  1  0  0  0  0
 14 34  1  0  0  0  0
 15 35  1  0  0  0  0
 15 36  1  0  0  0  0
 20 37  1  0  0  0  0
 21 38  1  0  0  0  0
 23 39  1  0  0  0  0
 24 40  1  0  0  0  0
 11 41  1  0  0  0  0
M  CHG  1  11   1
M  END
> <BIOSOLVEIT.HYDE_ESTIMATED_AFFINITY_LOWER_BOUNDARY [nM]>
13578.332812

> <BIOSOLVEIT.HYDE_ESTIMATED_AFFINITY_UPPER_BOUNDARY [nM]>
1349087.646314

> <BIOSOLVEIT.HYDE_LIGAND_EFFICIENCY range: ++, +, 0, -, -->
-

> <BIOSOLVEIT.HYDE_LIGAND_LIPOPHILIC_EFFICIENCY range: ++, +, 0, -, -->
--

> <BIOSOLVEIT.INTER_CLASH range: red, yellow, green>
green

> <BIOSOLVEIT.INTRA_CLASH range: red, yellow, green>
green

> <BIOSOLVEIT.LOGP>
2.0684

> <BIOSOLVEIT.MOLECULAR WEIGHT>
369.245

> <BIOSOLVEIT.MOLECULE_CHECKSUM>
LTIyLjA4MTg7MC45MjAwNzM=

> <BIOSOLVEIT.TORSION_QUALITY range: red, yellow, green, not rotatable>
yellow

> <BIOSOLVEIT.TPSA>
37.64

> <BIOSOLVEIT.SEESAR_FAVORITE>
favorite

> <smc_score>
1.0

> <QED_score>
0.779

> <distance>
0.682

> <SimilarityPheSA_1>
0.692

> <Smiles>
O=C(c1cccnc1)N1CCN(Cc2cc(Cl)c(Cl)cc2F)CC1

> <Similarity_SkelSpheres>
0.676

> <Cluster No>
152.0

> <QueryID>
MAT-POS-f7918075-5

> <SimilarityPheSA>
0.6917

> <Postera series>
3-aminopyridine-like

> <PDB_code>
Mpro-x11499

> <Approach>
DGM_exploratory_RL

> <ID>
20210628_368

> <SimilarityPheSA_2>
0.777

> <OPTIBRIUM.logD>
1.63036

> <OPTIBRIUM.BBB category>
+

> <OPTIBRIUM.logP>
1.97494

> <OPTIBRIUM.P-gp category>
no

> <OPTIBRIUM.logS>
2.4618

> <OPTIBRIUM.HIA category>
+

> <OPTIBRIUM.PPB90 category>
high

> <OPTIBRIUM.2D6 affinity category>
medium

> <OPTIBRIUM.hERG pIC50>
5.47857

> <OPTIBRIUM.2C9 pKi>
5.16613

> <OPTIBRIUM.BBB log([brain]:[blood])>
-0.0915014

> <OPTIBRIUM.logS @ pH7.4>
1.79483

$$$$
Compound 1098_1_004
haSeeSAR  07122114523D 1   1.00000     0.00000     0
SeeSAR 11.0.2 hazemaj
 41 43  0  0  0  0            999 V2000
   16.1333  -19.5979    0.3328 Cl  0  0  0  0  0  0  0  0  0  0  0  0
   15.5420  -18.7162    1.7610 C   0  0  0  0  0  0  0  0  0  0  0  0
   16.3556  -18.5799    2.8796 C   0  0  0  0  0  0  0  0  0  0  0  0
   14.2634  -18.1690    1.7469 C   0  0  0  0  0  0  0  0  0  0  0  0
   17.9880  -19.2892    2.8755 Cl  0  0  0  0  0  0  0  0  0  0  0  0
   15.9076  -17.8954    4.0042 C   0  0  0  0  0  0  0  0  0  0  0  0
   13.8142  -17.4835    2.8706 C   0  0  0  0  0  0  0  0  0  0  0  0
   14.6293  -17.3487    3.9886 C   0  0  0  0  0  0  0  0  0  0  0  0
   12.5954  -16.9546    2.8693 F   0  0  0  0  0  0  0  0  0  0  0  0
   14.1209  -16.5973    5.2087 C   0  0  0  0  0  0  0  0  0  0  0  0
   14.6817  -15.2374    5.2158 N   0  3  1  0  0  0  0  0  0  0  0  0
   16.1013  -15.2673    5.5803 C   0  0  0  0  0  0  0  0  0  0  0  0
   14.5194  -14.6749    3.8698 C   0  0  0  0  0  0  0  0  0  0  0  0
   16.6201  -13.8569    5.8263 C   0  0  0  0  0  0  0  0  0  0  0  0
   15.5783  -13.6057    3.6282 C   0  0  0  0  0  0  0  0  0  0  0  0
   15.8926  -12.9613    4.9090 N   0  0  0  0  0  0  0  0  0  0  0  0
   15.5452  -11.6440    5.2286 C   0  0  0  0  0  0  0  0  0  0  0  0
   16.1651  -10.7054    4.7286 O   0  0  0  0  0  0  0  0  0  0  0  0
   14.4548  -11.3846    6.1488 C   0  0  0  0  0  0  0  0  0  0  0  0
   13.2369  -10.8647    5.7227 C   0  0  0  0  0  0  0  0  0  0  0  0
   14.6201  -11.6586    7.5018 C   0  0  0  0  0  0  0  0  0  0  0  0
   12.2434  -10.6326    6.5935 N   0  0  0  0  0  0  0  0  0  0  0  0
   13.5809  -11.4133    8.3930 C   0  0  0  0  0  0  0  0  0  0  0  0
   12.3887  -10.8927    7.9011 C   0  0  0  0  0  0  0  0  0  0  0  0
   13.6770  -18.2667    0.9427 H   0  0  0  0  0  0  0  0  0  0  0  0
   16.4938  -17.7980    4.8085 H   0  0  0  0  0  0  0  0  0  0  0  0
   14.4034  -17.0787    6.0384 H   0  0  0  0  0  0  0  0  0  0  0  0
   13.1227  -16.5459    5.1766 H   0  0  0  0  0  0  0  0  0  0  0  0
   16.6232  -15.6845    4.8362 H   0  0  0  0  0  0  0  0  0  0  0  0
   16.2158  -15.8097    6.4125 H   0  0  0  0  0  0  0  0  0  0  0  0
   13.6102  -14.2668    3.7876 H   0  0  0  0  0  0  0  0  0  0  0  0
   14.6209  -15.4024    3.1911 H   0  0  0  0  0  0  0  0  0  0  0  0
   17.6017  -13.8151    5.6398 H   0  0  0  0  0  0  0  0  0  0  0  0
   16.4492  -13.5891    6.7745 H   0  0  0  0  0  0  0  0  0  0  0  0
   15.2286  -12.9244    2.9851 H   0  0  0  0  0  0  0  0  0  0  0  0
   16.4031  -14.0272    3.2515 H   0  0  0  0  0  0  0  0  0  0  0  0
   13.1000  -10.6612    4.7533 H   0  0  0  0  0  0  0  0  0  0  0  0
   15.4862  -12.0320    7.8342 H   0  0  0  0  0  0  0  0  0  0  0  0
   13.6887  -11.6074    9.3681 H   0  0  0  0  0  0  0  0  0  0  0  0
   11.6320  -10.7104    8.5290 H   0  0  0  0  0  0  0  0  0  0  0  0
   14.1812  -14.6747    5.8738 H   0  0  0  0  0  0  0  0  0  0  0  0
  1  2  1  0  0  0  0
  2  3  2  0  0  0  0
  2  4  1  0  0  0  0
  3  5  1  0  0  0  0
  3  6  1  0  0  0  0
  4  7  2  0  0  0  0
  6  8  2  0  0  0  0
  7  9  1  0  0  0  0
  8 10  1  0  0  0  0
 10 11  1  0  0  0  0
 11 12  1  0  0  0  0
 11 13  1  0  0  0  0
 12 14  1  0  0  0  0
 13 15  1  0  0  0  0
 14 16  1  0  0  0  0
 16 17  1  0  0  0  0
 17 18  2  0  0  0  0
 17 19  1  0  0  0  0
 19 20  2  0  0  0  0
 19 21  1  0  0  0  0
 20 22  1  0  0  0  0
 21 23  2  0  0  0  0
 22 24  2  0  0  0  0
  7  8  1  0  0  0  0
 15 16  1  0  0  0  0
 23 24  1  0  0  0  0
  4 25  1  0  0  0  0
  6 26  1  0  0  0  0
 10 27  1  0  0  0  0
 10 28  1  0  0  0  0
 12 29  1  0  0  0  0
 12 30  1  0  0  0  0
 13 31  1  0  0  0  0
 13 32  1  0  0  0  0
 14 33  1  0  0  0  0
 14 34  1  0  0  0  0
 15 35  1  0  0  0  0
 15 36  1  0  0  0  0
 20 37  1  0  0  0  0
 21 38  1  0  0  0  0
 23 39  1  0  0  0  0
 24 40  1  0  0  0  0
 11 41  1  0  0  0  0
M  CHG  1  11   1
M  END
> <BIOSOLVEIT.HYDE_ESTIMATED_AFFINITY_LOWER_BOUNDARY [nM]>
565865.048009

> <BIOSOLVEIT.HYDE_ESTIMATED_AFFINITY_UPPER_BOUNDARY [nM]>
56222038.178651

> <BIOSOLVEIT.HYDE_LIGAND_EFFICIENCY range: ++, +, 0, -, -->
--

> <BIOSOLVEIT.HYDE_LIGAND_LIPOPHILIC_EFFICIENCY range: ++, +, 0, -, -->
--

> <BIOSOLVEIT.INTER_CLASH range: red, yellow, green>
green

> <BIOSOLVEIT.INTRA_CLASH range: red, yellow, green>
green

> <BIOSOLVEIT.LOGP>
2.0684

> <BIOSOLVEIT.MOLECULAR WEIGHT>
369.245

> <BIOSOLVEIT.MOLECULE_CHECKSUM>
LTEyLjgzNTU7MC41MzQ4MTQ=

> <BIOSOLVEIT.TORSION_QUALITY range: red, yellow, green, not rotatable>
yellow

> <BIOSOLVEIT.TPSA>
37.64

> <BIOSOLVEIT.SEESAR_FAVORITE>
favorite

> <smc_score>
1.0

> <QED_score>
0.779

> <distance>
0.682

> <SimilarityPheSA_1>
0.692

> <Smiles>
O=C(c1cccnc1)N1CCN(Cc2cc(Cl)c(Cl)cc2F)CC1

> <Similarity_SkelSpheres>
0.676

> <Cluster No>
152.0

> <QueryID>
MAT-POS-f7918075-5

> <SimilarityPheSA>
0.6917

> <Postera series>
3-aminopyridine-like

> <PDB_code>
Mpro-x11499

> <Approach>
DGM_exploratory_RL

> <ID>
20210628_368

> <SimilarityPheSA_2>
0.777

> <OPTIBRIUM.logD>
1.63036

> <OPTIBRIUM.BBB category>
+

> <OPTIBRIUM.logP>
1.97494

> <OPTIBRIUM.P-gp category>
no

> <OPTIBRIUM.logS>
2.4618

> <OPTIBRIUM.HIA category>
+

> <OPTIBRIUM.PPB90 category>
high

> <OPTIBRIUM.2D6 affinity category>
medium

> <OPTIBRIUM.hERG pIC50>
5.47857

> <OPTIBRIUM.2C9 pKi>
5.16613

> <OPTIBRIUM.BBB log([brain]:[blood])>
-0.0915014

> <OPTIBRIUM.logS @ pH7.4>
1.79483

$$$$
Compound 1098_1_009
haSeeSAR  07122114523D 1   1.00000     0.00000     0
SeeSAR 11.0.2 hazemaj
 41 43  0  0  0  0            999 V2000
   16.4276  -19.6454    0.4448 Cl  0  0  0  0  0  0  0  0  0  0  0  0
   15.7661  -18.7523    1.8345 C   0  0  0  0  0  0  0  0  0  0  0  0
   16.5288  -18.5936    2.9854 C   0  0  0  0  0  0  0  0  0  0  0  0
   14.4839  -18.2187    1.7580 C   0  0  0  0  0  0  0  0  0  0  0  0
   18.1669  -19.2857    3.0612 Cl  0  0  0  0  0  0  0  0  0  0  0  0
   16.0257  -17.8997    4.0806 C   0  0  0  0  0  0  0  0  0  0  0  0
   13.9795  -17.5239    2.8522 C   0  0  0  0  0  0  0  0  0  0  0  0
   14.7438  -17.3667    4.0027 C   0  0  0  0  0  0  0  0  0  0  0  0
   12.7568  -17.0078    2.7912 F   0  0  0  0  0  0  0  0  0  0  0  0
   14.1756  -16.6054    5.1898 C   0  0  0  0  0  0  0  0  0  0  0  0
   14.7249  -15.2410    5.2058 N   0  3  1  0  0  0  0  0  0  0  0  0
   16.1356  -15.2580    5.6043 C   0  0  0  0  0  0  0  0  0  0  0  0
   14.5904  -14.6841    3.8543 C   0  0  0  0  0  0  0  0  0  0  0  0
   16.6368  -13.8426    5.8580 C   0  0  0  0  0  0  0  0  0  0  0  0
   15.6460  -13.6069    3.6346 C   0  0  0  0  0  0  0  0  0  0  0  0
   15.9242  -12.9560    4.9204 N   0  0  0  0  0  0  0  0  0  0  0  0
   15.5585  -11.6406    5.2271 C   0  0  0  0  0  0  0  0  0  0  0  0
   16.1673  -10.6984    4.7202 O   0  0  0  0  0  0  0  0  0  0  0  0
   14.4623  -11.3874    6.1422 C   0  0  0  0  0  0  0  0  0  0  0  0
   13.2461  -10.8674    5.7116 C   0  0  0  0  0  0  0  0  0  0  0  0
   14.6202  -11.6676    7.4949 C   0  0  0  0  0  0  0  0  0  0  0  0
   12.2472  -10.6411    6.5776 N   0  0  0  0  0  0  0  0  0  0  0  0
   13.5754  -11.4283    8.3812 C   0  0  0  0  0  0  0  0  0  0  0  0
   12.3853  -10.9073    7.8849 C   0  0  0  0  0  0  0  0  0  0  0  0
   13.9341  -18.3325    0.9304 H   0  0  0  0  0  0  0  0  0  0  0  0
   16.5753  -17.7862    4.9083 H   0  0  0  0  0  0  0  0  0  0  0  0
   14.4243  -17.0749    6.0369 H   0  0  0  0  0  0  0  0  0  0  0  0
   13.1794  -16.5628    5.1124 H   0  0  0  0  0  0  0  0  0  0  0  0
   16.6785  -15.6733    4.8743 H   0  0  0  0  0  0  0  0  0  0  0  0
   16.2344  -15.7968    6.4409 H   0  0  0  0  0  0  0  0  0  0  0  0
   13.6801  -14.2838    3.7489 H   0  0  0  0  0  0  0  0  0  0  0  0
   14.7141  -15.4129    3.1808 H   0  0  0  0  0  0  0  0  0  0  0  0
   17.6222  -13.7934    5.6950 H   0  0  0  0  0  0  0  0  0  0  0  0
   16.4410  -13.5733    6.8009 H   0  0  0  0  0  0  0  0  0  0  0  0
   15.3064  -12.9307    2.9810 H   0  0  0  0  0  0  0  0  0  0  0  0
   16.4832  -14.0229    3.2793 H   0  0  0  0  0  0  0  0  0  0  0  0
   13.1145  -10.6595    4.7423 H   0  0  0  0  0  0  0  0  0  0  0  0
   15.4849  -12.0412    7.8306 H   0  0  0  0  0  0  0  0  0  0  0  0
   13.6778  -11.6269    9.3559 H   0  0  0  0  0  0  0  0  0  0  0  0
   11.6246  -10.7293    8.5091 H   0  0  0  0  0  0  0  0  0  0  0  0
   14.2043  -14.6804    5.8497 H   0  0  0  0  0  0  0  0  0  0  0  0
  1  2  1  0  0  0  0
  2  3  2  0  0  0  0
  2  4  1  0  0  0  0
  3  5  1  0  0  0  0
  3  6  1  0  0  0  0
  4  7  2  0  0  0  0
  6  8  2  0  0  0  0
  7  9  1  0  0  0  0
  8 10  1  0  0  0  0
 10 11  1  0  0  0  0
 11 12  1  0  0  0  0
 11 13  1  0  0  0  0
 12 14  1  0  0  0  0
 13 15  1  0  0  0  0
 14 16  1  0  0  0  0
 16 17  1  0  0  0  0
 17 18  2  0  0  0  0
 17 19  1  0  0  0  0
 19 20  2  0  0  0  0
 19 21  1  0  0  0  0
 20 22  1  0  0  0  0
 21 23  2  0  0  0  0
 22 24  2  0  0  0  0
  7  8  1  0  0  0  0
 15 16  1  0  0  0  0
 23 24  1  0  0  0  0
  4 25  1  0  0  0  0
  6 26  1  0  0  0  0
 10 27  1  0  0  0  0
 10 28  1  0  0  0  0
 12 29  1  0  0  0  0
 12 30  1  0  0  0  0
 13 31  1  0  0  0  0
 13 32  1  0  0  0  0
 14 33  1  0  0  0  0
 14 34  1  0  0  0  0
 15 35  1  0  0  0  0
 15 36  1  0  0  0  0
 20 37  1  0  0  0  0
 21 38  1  0  0  0  0
 23 39  1  0  0  0  0
 24 40  1  0  0  0  0
 11 41  1  0  0  0  0
M  CHG  1  11   1
M  END
> <BIOSOLVEIT.HYDE_ESTIMATED_AFFINITY_LOWER_BOUNDARY [nM]>
553684.798974

> <BIOSOLVEIT.HYDE_ESTIMATED_AFFINITY_UPPER_BOUNDARY [nM]>
55011858.421652

> <BIOSOLVEIT.HYDE_LIGAND_EFFICIENCY range: ++, +, 0, -, -->
--

> <BIOSOLVEIT.HYDE_LIGAND_LIPOPHILIC_EFFICIENCY range: ++, +, 0, -, -->
--

> <BIOSOLVEIT.INTER_CLASH range: red, yellow, green>
green

> <BIOSOLVEIT.INTRA_CLASH range: red, yellow, green>
green

> <BIOSOLVEIT.LOGP>
2.0684

> <BIOSOLVEIT.MOLECULAR WEIGHT>
369.245

> <BIOSOLVEIT.MOLECULE_CHECKSUM>
LTEyLjg4OTU7MC41MzcwNjI=

> <BIOSOLVEIT.TORSION_QUALITY range: red, yellow, green, not rotatable>
yellow

> <BIOSOLVEIT.TPSA>
37.64

> <BIOSOLVEIT.SEESAR_FAVORITE>
favorite

> <smc_score>
1.0

> <QED_score>
0.779

> <distance>
0.682

> <SimilarityPheSA_1>
0.692

> <Smiles>
O=C(c1cccnc1)N1CCN(Cc2cc(Cl)c(Cl)cc2F)CC1

> <Similarity_SkelSpheres>
0.676

> <Cluster No>
152.0

> <QueryID>
MAT-POS-f7918075-5

> <SimilarityPheSA>
0.6917

> <Postera series>
3-aminopyridine-like

> <PDB_code>
Mpro-x11499

> <Approach>
DGM_exploratory_RL

> <ID>
20210628_368

> <SimilarityPheSA_2>
0.777

> <OPTIBRIUM.logD>
1.63036

> <OPTIBRIUM.BBB category>
+

> <OPTIBRIUM.logP>
1.97494

> <OPTIBRIUM.P-gp category>
no

> <OPTIBRIUM.logS>
2.4618

> <OPTIBRIUM.HIA category>
+

> <OPTIBRIUM.PPB90 category>
high

> <OPTIBRIUM.2D6 affinity category>
medium

> <OPTIBRIUM.hERG pIC50>
5.47857

> <OPTIBRIUM.2C9 pKi>
5.16613

> <OPTIBRIUM.BBB log([brain]:[blood])>
-0.0915014

> <OPTIBRIUM.logS @ pH7.4>
1.79483

$$$$
Compound 1130_1_3
haSeeSAR  07122114523D 1   1.00000     0.00000     0
SeeSAR 11.0.2 hazemaj
 37 38  0  0  0  0            999 V2000
   22.3851   -7.6621    3.8734 Cl  0  0  0  0  0  0  0  0  0  0  0  0
   21.3254   -9.0689    4.1275 C   0  0  0  0  0  0  0  0  0  0  0  0
   20.0258   -9.0579    3.6349 C   0  0  0  0  0  0  0  0  0  0  0  0
   21.8080  -10.1732    4.8218 C   0  0  0  0  0  0  0  0  0  0  0  0
   19.4292   -7.6333    2.7500 Cl  0  0  0  0  0  0  0  0  0  0  0  0
   19.1846  -10.1485    3.8264 C   0  0  0  0  0  0  0  0  0  0  0  0
   20.9680  -11.2650    5.0136 C   0  0  0  0  0  0  0  0  0  0  0  0
   19.6684  -11.2518    4.5206 C   0  0  0  0  0  0  0  0  0  0  0  0
   21.4175  -12.3268    5.6737 F   0  0  0  0  0  0  0  0  0  0  0  0
   18.7642  -12.4534    4.7410 C   0  0  0  0  0  0  0  0  0  0  0  0
   17.3999  -12.1270    4.3019 N   0  0  0  0  0  0  0  0  0  0  0  0
   16.5387  -11.5986    5.1561 C   0  0  0  0  0  0  0  0  0  0  0  0
   16.9923  -12.3877    2.9138 C   0  0  0  0  0  0  0  0  0  0  0  0
   15.9187  -10.5791    4.8537 O   0  0  0  0  0  0  0  0  0  0  0  0
   16.3148  -12.2506    6.5108 C   0  0  0  0  0  0  0  0  0  0  0  0
   15.1855  -11.5371    7.2360 C   0  0  0  0  0  0  0  0  0  0  0  0
   13.8890  -11.9994    6.7031 N   0  0  0  0  0  0  0  0  0  0  0  0
   12.7544  -11.2233    6.5159 C   0  0  0  0  0  0  0  0  0  0  0  0
   13.5312  -13.3698    6.3361 C   0  0  0  0  0  0  0  0  0  0  0  0
   12.6488  -10.0530    6.8342 O   0  0  0  0  0  0  0  0  0  0  0  0
   11.7658  -11.9308    5.9166 O   0  0  0  0  0  0  0  0  0  0  0  0
   12.2922  -13.1755    5.4866 C   0  0  0  0  0  0  0  0  0  0  0  0
   22.7428  -10.1821    5.1769 H   0  0  0  0  0  0  0  0  0  0  0  0
   18.2496  -10.1394    3.4716 H   0  0  0  0  0  0  0  0  0  0  0  0
   18.7543  -12.6892    5.7127 H   0  0  0  0  0  0  0  0  0  0  0  0
   19.1075  -13.2301    4.2129 H   0  0  0  0  0  0  0  0  0  0  0  0
   16.0403  -12.1086    2.7879 H   0  0  0  0  0  0  0  0  0  0  0  0
   17.5773  -11.8677    2.2914 H   0  0  0  0  0  0  0  0  0  0  0  0
   17.0820  -13.3642    2.7179 H   0  0  0  0  0  0  0  0  0  0  0  0
   17.1522  -12.1870    7.0537 H   0  0  0  0  0  0  0  0  0  0  0  0
   16.0732  -13.2123    6.3821 H   0  0  0  0  0  0  0  0  0  0  0  0
   15.2705  -10.5505    7.0965 H   0  0  0  0  0  0  0  0  0  0  0  0
   15.2358  -11.7410    8.2138 H   0  0  0  0  0  0  0  0  0  0  0  0
   13.3297  -13.9191    7.1470 H   0  0  0  0  0  0  0  0  0  0  0  0
   14.2629  -13.8053    5.8119 H   0  0  0  0  0  0  0  0  0  0  0  0
   11.6347  -13.9122    5.6450 H   0  0  0  0  0  0  0  0  0  0  0  0
   12.5296  -13.1437    4.5157 H   0  0  0  0  0  0  0  0  0  0  0  0
  1  2  1  0  0  0  0
  2  3  2  0  0  0  0
  2  4  1  0  0  0  0
  3  5  1  0  0  0  0
  3  6  1  0  0  0  0
  4  7  2  0  0  0  0
  6  8  2  0  0  0  0
  7  9  1  0  0  0  0
  8 10  1  0  0  0  0
 10 11  1  0  0  0  0
 11 12  1  0  0  0  0
 11 13  1  0  0  0  0
 12 14  2  0  0  0  0
 12 15  1  0  0  0  0
 15 16  1  0  0  0  0
 16 17  1  0  0  0  0
 17 18  1  0  0  0  0
 17 19  1  0  0  0  0
 18 20  2  0  0  0  0
 18 21  1  0  0  0  0
 19 22  1  0  0  0  0
  7  8  1  0  0  0  0
 21 22  1  0  0  0  0
  4 23  1  0  0  0  0
  6 24  1  0  0  0  0
 10 25  1  0  0  0  0
 10 26  1  0  0  0  0
 13 27  1  0  0  0  0
 13 28  1  0  0  0  0
 13 29  1  0  0  0  0
 15 30  1  0  0  0  0
 15 31  1  0  0  0  0
 16 32  1  0  0  0  0
 16 33  1  0  0  0  0
 19 34  1  0  0  0  0
 19 35  1  0  0  0  0
 22 36  1  0  0  0  0
 22 37  1  0  0  0  0
M  END
> <BIOSOLVEIT.HYDE_ESTIMATED_AFFINITY_LOWER_BOUNDARY [nM]>
1759003921.091231

> <BIOSOLVEIT.HYDE_ESTIMATED_AFFINITY_UPPER_BOUNDARY [nM]>
174767439614.667725

> <BIOSOLVEIT.HYDE_LIGAND_EFFICIENCY range: ++, +, 0, -, -->
--

> <BIOSOLVEIT.HYDE_LIGAND_LIPOPHILIC_EFFICIENCY range: ++, +, 0, -, -->
--

> <BIOSOLVEIT.INTER_CLASH range: red, yellow, green>
green

> <BIOSOLVEIT.INTRA_CLASH range: red, yellow, green>
green

> <BIOSOLVEIT.LOGP>
2.9332

> <BIOSOLVEIT.MOLECULAR WEIGHT>
349.188

> <BIOSOLVEIT.MOLECULE_CHECKSUM>
Ny4wOTk5OTsw

> <BIOSOLVEIT.TORSION_QUALITY range: red, yellow, green, not rotatable>
red

> <BIOSOLVEIT.TPSA>
49.85

> <BIOSOLVEIT.SEESAR_FAVORITE>
favorite

> <smc_score>
0.938

> <QED_score>
0.768

> <distance>
0.733

> <SimilarityPheSA_1>
0.7

> <Smiles>
CN(Cc1cc(Cl)c(Cl)cc1F)C(=O)CCN1CCOC1=O

> <Similarity_SkelSpheres>
0.563

> <Cluster No>
163.0

> <QueryID>
JAG-UCB-a3ef7265-20

> <SimilarityPheSA>
0.6998

> <Postera series>
3-aminopyridine-like

> <PDB_code>
Mpro-x10324

> <Approach>
DGM_exploratory_RL

> <ID>
20210628_400

> <SimilarityPheSA_2>
0.676

> <OPTIBRIUM.logD>
2.25492

> <OPTIBRIUM.BBB category>
-

> <OPTIBRIUM.logP>
2.25492

> <OPTIBRIUM.P-gp category>
no

> <OPTIBRIUM.logS>
2.53476

> <OPTIBRIUM.HIA category>
+

> <OPTIBRIUM.PPB90 category>
low

> <OPTIBRIUM.2D6 affinity category>
medium

> <OPTIBRIUM.hERG pIC50>
5.10034

> <OPTIBRIUM.2C9 pKi>
4.48564

> <OPTIBRIUM.BBB log([brain]:[blood])>
-0.398

> <OPTIBRIUM.logS @ pH7.4>
2.53476

$$$$
Compound 1130_1_5
haSeeSAR  07122114523D 1   1.00000     0.00000     0
SeeSAR 11.0.2 hazemaj
 37 38  0  0  0  0            999 V2000
   21.9933   -6.4660    3.6609 Cl  0  0  0  0  0  0  0  0  0  0  0  0
   21.1055   -8.0083    3.6635 C   0  0  0  0  0  0  0  0  0  0  0  0
   19.8388   -8.0819    3.0961 C   0  0  0  0  0  0  0  0  0  0  0  0
   21.6886   -9.1331    4.2373 C   0  0  0  0  0  0  0  0  0  0  0  0
   19.1119   -6.6294    2.3680 Cl  0  0  0  0  0  0  0  0  0  0  0  0
   19.1313   -9.2790    3.0915 C   0  0  0  0  0  0  0  0  0  0  0  0
   20.9824  -10.3313    4.2329 C   0  0  0  0  0  0  0  0  0  0  0  0
   19.7155  -10.4027    3.6655 C   0  0  0  0  0  0  0  0  0  0  0  0
   21.5291  -11.4135    4.7764 F   0  0  0  0  0  0  0  0  0  0  0  0
   18.9582  -11.7203    3.6711 C   0  0  0  0  0  0  0  0  0  0  0  0
   18.1540  -11.8180    4.8977 N   0  0  0  0  0  0  0  0  0  0  0  0
   16.8898  -11.4277    4.8928 C   0  0  0  0  0  0  0  0  0  0  0  0
   18.7543  -12.3493    6.1298 C   0  0  0  0  0  0  0  0  0  0  0  0
   16.6054  -10.2660    4.6017 O   0  0  0  0  0  0  0  0  0  0  0  0
   15.7887  -12.4139    5.2466 C   0  0  0  0  0  0  0  0  0  0  0  0
   14.4647  -11.6759    5.3603 C   0  0  0  0  0  0  0  0  0  0  0  0
   13.9990  -11.7134    6.7603 N   0  0  0  0  0  0  0  0  0  0  0  0
   12.8349  -11.1502    7.2818 C   0  0  0  0  0  0  0  0  0  0  0  0
   14.6799  -12.3810    7.8668 C   0  0  0  0  0  0  0  0  0  0  0  0
   11.9692  -10.6119    6.6147 O   0  0  0  0  0  0  0  0  0  0  0  0
   12.7923  -11.2512    8.6193 O   0  0  0  0  0  0  0  0  0  0  0  0
   14.0243  -11.7642    9.0900 C   0  0  0  0  0  0  0  0  0  0  0  0
   22.5997   -9.0812    4.6460 H   0  0  0  0  0  0  0  0  0  0  0  0
   18.2199   -9.3309    2.6832 H   0  0  0  0  0  0  0  0  0  0  0  0
   19.6088  -12.4789    3.6378 H   0  0  0  0  0  0  0  0  0  0  0  0
   18.3561  -11.7621    2.8737 H   0  0  0  0  0  0  0  0  0  0  0  0
   18.0727  -12.3454    6.8615 H   0  0  0  0  0  0  0  0  0  0  0  0
   19.0676  -13.2856    5.9711 H   0  0  0  0  0  0  0  0  0  0  0  0
   19.5312  -11.7783    6.3952 H   0  0  0  0  0  0  0  0  0  0  0  0
   16.0018  -12.8524    6.1197 H   0  0  0  0  0  0  0  0  0  0  0  0
   15.7220  -13.1098    4.5317 H   0  0  0  0  0  0  0  0  0  0  0  0
   13.7865  -12.1155    4.7715 H   0  0  0  0  0  0  0  0  0  0  0  0
   14.5875  -10.7252    5.0752 H   0  0  0  0  0  0  0  0  0  0  0  0
   15.6619  -12.1924    7.8513 H   0  0  0  0  0  0  0  0  0  0  0  0
   14.5297  -13.3693    7.8378 H   0  0  0  0  0  0  0  0  0  0  0  0
   14.5926  -11.0303    9.4620 H   0  0  0  0  0  0  0  0  0  0  0  0
   13.8712  -12.4570    9.7948 H   0  0  0  0  0  0  0  0  0  0  0  0
  1  2  1  0  0  0  0
  2  3  2  0  0  0  0
  2  4  1  0  0  0  0
  3  5  1  0  0  0  0
  3  6  1  0  0  0  0
  4  7  2  0  0  0  0
  6  8  2  0  0  0  0
  7  9  1  0  0  0  0
  8 10  1  0  0  0  0
 10 11  1  0  0  0  0
 11 12  1  0  0  0  0
 11 13  1  0  0  0  0
 12 14  2  0  0  0  0
 12 15  1  0  0  0  0
 15 16  1  0  0  0  0
 16 17  1  0  0  0  0
 17 18  1  0  0  0  0
 17 19  1  0  0  0  0
 18 20  2  0  0  0  0
 18 21  1  0  0  0  0
 19 22  1  0  0  0  0
  7  8  1  0  0  0  0
 21 22  1  0  0  0  0
  4 23  1  0  0  0  0
  6 24  1  0  0  0  0
 10 25  1  0  0  0  0
 10 26  1  0  0  0  0
 13 27  1  0  0  0  0
 13 28  1  0  0  0  0
 13 29  1  0  0  0  0
 15 30  1  0  0  0  0
 15 31  1  0  0  0  0
 16 32  1  0  0  0  0
 16 33  1  0  0  0  0
 19 34  1  0  0  0  0
 19 35  1  0  0  0  0
 22 36  1  0  0  0  0
 22 37  1  0  0  0  0
M  END
> <BIOSOLVEIT.HYDE_ESTIMATED_AFFINITY_LOWER_BOUNDARY [nM]>
559188405.400587

> <BIOSOLVEIT.HYDE_ESTIMATED_AFFINITY_UPPER_BOUNDARY [nM]>
55558674260.056274

> <BIOSOLVEIT.HYDE_LIGAND_EFFICIENCY range: ++, +, 0, -, -->
--

> <BIOSOLVEIT.HYDE_LIGAND_LIPOPHILIC_EFFICIENCY range: ++, +, 0, -, -->
--

> <BIOSOLVEIT.INTER_CLASH range: red, yellow, green>
green

> <BIOSOLVEIT.INTRA_CLASH range: red, yellow, green>
green

> <BIOSOLVEIT.LOGP>
2.9332

> <BIOSOLVEIT.MOLECULAR WEIGHT>
349.188

> <BIOSOLVEIT.MOLECULE_CHECKSUM>
NC4yNTkwNjsw

> <BIOSOLVEIT.TORSION_QUALITY range: red, yellow, green, not rotatable>
red

> <BIOSOLVEIT.TPSA>
49.85

> <BIOSOLVEIT.SEESAR_FAVORITE>
favorite

> <smc_score>
0.938

> <QED_score>
0.768

> <distance>
0.733

> <SimilarityPheSA_1>
0.7

> <Smiles>
CN(Cc1cc(Cl)c(Cl)cc1F)C(=O)CCN1CCOC1=O

> <Similarity_SkelSpheres>
0.563

> <Cluster No>
163.0

> <QueryID>
JAG-UCB-a3ef7265-20

> <SimilarityPheSA>
0.6998

> <Postera series>
3-aminopyridine-like

> <PDB_code>
Mpro-x10324

> <Approach>
DGM_exploratory_RL

> <ID>
20210628_400

> <SimilarityPheSA_2>
0.676

> <OPTIBRIUM.logD>
2.25492

> <OPTIBRIUM.BBB category>
-

> <OPTIBRIUM.logP>
2.25492

> <OPTIBRIUM.P-gp category>
no

> <OPTIBRIUM.logS>
2.53476

> <OPTIBRIUM.HIA category>
+

> <OPTIBRIUM.PPB90 category>
low

> <OPTIBRIUM.2D6 affinity category>
medium

> <OPTIBRIUM.hERG pIC50>
5.10034

> <OPTIBRIUM.2C9 pKi>
4.48564

> <OPTIBRIUM.BBB log([brain]:[blood])>
-0.398

> <OPTIBRIUM.logS @ pH7.4>
2.53476

$$$$
Compound 1140_1_1
haSeeSAR  07122114523D 1   1.00000     0.00000     0
SeeSAR 11.0.2 hazemaj
 38 39  0  0  0  0            999 V2000
   23.8134   -8.6860    3.5745 Br  0  0  0  0  0  0  0  0  0  0  0  0
   22.1258   -9.6824    3.5769 C   0  0  0  0  0  0  0  0  0  0  0  0
   21.7442  -10.3997    4.7054 C   0  0  0  0  0  0  0  0  0  0  0  0
   21.3205   -9.6635    2.4430 C   0  0  0  0  0  0  0  0  0  0  0  0
   22.7929  -10.4067    6.1435 Cl  0  0  0  0  0  0  0  0  0  0  0  0
   20.5500  -11.1116    4.7210 C   0  0  0  0  0  0  0  0  0  0  0  0
   20.1265  -10.3756    2.4593 C   0  0  0  0  0  0  0  0  0  0  0  0
   19.7449  -11.0934    3.5874 C   0  0  0  0  0  0  0  0  0  0  0  0
   19.3430  -10.3691    1.3853 F   0  0  0  0  0  0  0  0  0  0  0  0
   18.4360  -11.8674    3.5899 C   0  0  0  0  0  0  0  0  0  0  0  0
   17.9762  -12.0483    4.9743 N   0  0  0  0  0  0  0  0  0  0  0  0
   17.1083  -11.1991    5.4995 C   0  0  0  0  0  0  0  0  0  0  0  0
   16.6856  -10.2574    4.8287 O   0  0  0  0  0  0  0  0  0  0  0  0
   16.6329  -11.3863    6.9310 C   0  0  0  0  0  0  0  0  0  0  0  0
   15.4769  -12.3729    6.9561 C   0  0  0  0  0  0  0  0  0  0  0  0
   14.2100  -11.6400    7.0905 N   0  0  0  0  0  0  0  0  0  0  0  0
   13.4233  -11.1902    6.0709 C   0  0  0  0  0  0  0  0  0  0  0  0
   13.6106  -11.2835    8.2614 C   0  0  0  0  0  0  0  0  0  0  0  0
   12.3721  -10.5767    6.5675 N   0  0  0  0  0  0  0  0  0  0  0  0
   13.7364  -11.3734    4.5936 C   0  0  0  0  0  0  0  0  0  0  0  0
   12.4651  -10.6224    7.9290 C   0  0  0  0  0  0  0  0  0  0  0  0
   13.8922  -12.8543    4.2885 C   0  0  0  0  0  0  0  0  0  0  0  0
   21.5951   -9.1476    1.6316 H   0  0  0  0  0  0  0  0  0  0  0  0
   20.2751  -11.6273    5.5325 H   0  0  0  0  0  0  0  0  0  0  0  0
   18.5770  -12.7620    3.1658 H   0  0  0  0  0  0  0  0  0  0  0  0
   17.7470  -11.3587    3.0736 H   0  0  0  0  0  0  0  0  0  0  0  0
   18.3196  -12.8134    5.5192 H   0  0  0  0  0  0  0  0  0  0  0  0
   16.3291  -10.5076    7.2990 H   0  0  0  0  0  0  0  0  0  0  0  0
   17.3845  -11.7392    7.4883 H   0  0  0  0  0  0  0  0  0  0  0  0
   15.5861  -12.9948    7.7315 H   0  0  0  0  0  0  0  0  0  0  0  0
   15.4690  -12.8989    6.1056 H   0  0  0  0  0  0  0  0  0  0  0  0
   13.9456  -11.4703    9.1850 H   0  0  0  0  0  0  0  0  0  0  0  0
   14.5865  -10.8960    4.3713 H   0  0  0  0  0  0  0  0  0  0  0  0
   12.9895  -10.9969    4.0454 H   0  0  0  0  0  0  0  0  0  0  0  0
   11.8050  -10.2364    8.5734 H   0  0  0  0  0  0  0  0  0  0  0  0
   14.0980  -12.9747    3.3174 H   0  0  0  0  0  0  0  0  0  0  0  0
   14.6391  -13.2307    4.8367 H   0  0  0  0  0  0  0  0  0  0  0  0
   13.0421  -13.3317    4.5109 H   0  0  0  0  0  0  0  0  0  0  0  0
  1  2  1  0  0  0  0
  2  3  2  0  0  0  0
  2  4  1  0  0  0  0
  3  5  1  0  0  0  0
  3  6  1  0  0  0  0
  4  7  2  0  0  0  0
  6  8  2  0  0  0  0
  7  9  1  0  0  0  0
  8 10  1  0  0  0  0
 10 11  1  0  0  0  0
 11 12  1  0  0  0  0
 12 13  2  0  0  0  0
 12 14  1  0  0  0  0
 14 15  1  0  0  0  0
 15 16  1  0  0  0  0
 16 17  1  0  0  0  0
 16 18  1  0  0  0  0
 17 19  2  0  0  0  0
 17 20  1  0  0  0  0
 18 21  2  0  0  0  0
 20 22  1  0  0  0  0
  7  8  1  0  0  0  0
 19 21  1  0  0  0  0
  4 23  1  0  0  0  0
  6 24  1  0  0  0  0
 10 25  1  0  0  0  0
 10 26  1  0  0  0  0
 11 27  1  0  0  0  0
 14 28  1  0  0  0  0
 14 29  1  0  0  0  0
 15 30  1  0  0  0  0
 15 31  1  0  0  0  0
 18 32  1  0  0  0  0
 20 33  1  0  0  0  0
 20 34  1  0  0  0  0
 21 35  1  0  0  0  0
 22 36  1  0  0  0  0
 22 37  1  0  0  0  0
 22 38  1  0  0  0  0
M  END
> <BIOSOLVEIT.HYDE_ESTIMATED_AFFINITY_LOWER_BOUNDARY [nM]>
108081.753469

> <BIOSOLVEIT.HYDE_ESTIMATED_AFFINITY_UPPER_BOUNDARY [nM]>
10738561.237031

> <BIOSOLVEIT.HYDE_LIGAND_EFFICIENCY range: ++, +, 0, -, -->
--

> <BIOSOLVEIT.HYDE_LIGAND_LIPOPHILIC_EFFICIENCY range: ++, +, 0, -, -->
--

> <BIOSOLVEIT.INTER_CLASH range: red, yellow, green>
green

> <BIOSOLVEIT.INTRA_CLASH range: red, yellow, green>
green

> <BIOSOLVEIT.LOGP>
3.707

> <BIOSOLVEIT.MOLECULAR WEIGHT>
388.666

> <BIOSOLVEIT.MOLECULE_CHECKSUM>
LTE2LjkzOTQ7MC43Njk5NzI=

> <BIOSOLVEIT.TORSION_QUALITY range: red, yellow, green, not rotatable>
red

> <BIOSOLVEIT.TPSA>
46.92

> <BIOSOLVEIT.SEESAR_FAVORITE>
favorite

> <smc_score>
0.563

> <QED_score>
0.767

> <distance>
0.729

> <SimilarityPheSA_1>
0.65

> <Smiles>
CCc1nccn1CCC(=O)NCc1cc(Cl)c(Br)cc1F

> <Similarity_SkelSpheres>
0.551

> <Cluster No>
167.0

> <QueryID>
JAN-GHE-5a013bed-2

> <SimilarityPheSA>
0.6501

> <Postera series>
3-aminopyridine-like

> <PDB_code>
Mpro-x10466

> <Approach>
DGM_exploratory_RL

> <ID>
20210628_410

> <SimilarityPheSA_2>
0.717

> <OPTIBRIUM.logD>
3.53373

> <OPTIBRIUM.BBB category>
+

> <OPTIBRIUM.logP>
3.53373

> <OPTIBRIUM.P-gp category>
no

> <OPTIBRIUM.logS>
1.69296

> <OPTIBRIUM.HIA category>
+

> <OPTIBRIUM.PPB90 category>
high

> <OPTIBRIUM.2D6 affinity category>
medium

> <OPTIBRIUM.hERG pIC50>
4.97697

> <OPTIBRIUM.2C9 pKi>
5.1457

> <OPTIBRIUM.BBB log([brain]:[blood])>
-0.00943705

> <OPTIBRIUM.logS @ pH7.4>
1.69296

$$$$
Compound 1140_1_2
haSeeSAR  07122114523D 1   1.00000     0.00000     0
SeeSAR 11.0.2 hazemaj
 38 39  0  0  0  0            999 V2000
   23.3622   -9.0268    3.4515 Br  0  0  0  0  0  0  0  0  0  0  0  0
   21.6361   -9.9542    3.4932 C   0  0  0  0  0  0  0  0  0  0  0  0
   21.2420  -10.6371    4.6387 C   0  0  0  0  0  0  0  0  0  0  0  0
   20.8165   -9.9214    2.3701 C   0  0  0  0  0  0  0  0  0  0  0  0
   22.3097  -10.6629    6.0626 Cl  0  0  0  0  0  0  0  0  0  0  0  0
   20.0206  -11.2999    4.6823 C   0  0  0  0  0  0  0  0  0  0  0  0
   19.5952  -10.5844    2.4145 C   0  0  0  0  0  0  0  0  0  0  0  0
   19.2010  -11.2676    3.5595 C   0  0  0  0  0  0  0  0  0  0  0  0
   18.7975  -10.5638    1.3511 F   0  0  0  0  0  0  0  0  0  0  0  0
   17.8623  -11.9882    3.5924 C   0  0  0  0  0  0  0  0  0  0  0  0
   17.5116  -12.3069    4.9840 N   0  0  0  0  0  0  0  0  0  0  0  0
   16.8212  -11.4404    5.7073 C   0  0  0  0  0  0  0  0  0  0  0  0
   16.4727  -10.3674    5.2149 O   0  0  0  0  0  0  0  0  0  0  0  0
   16.4586  -11.7700    7.1461 C   0  0  0  0  0  0  0  0  0  0  0  0
   15.2054  -12.6300    7.1684 C   0  0  0  0  0  0  0  0  0  0  0  0
   14.0199  -11.7660    7.2608 N   0  0  0  0  0  0  0  0  0  0  0  0
   13.0823  -11.5723    6.2891 C   0  0  0  0  0  0  0  0  0  0  0  0
   13.6613  -11.0093    8.3360 C   0  0  0  0  0  0  0  0  0  0  0  0
   12.1690  -10.7327    6.7238 N   0  0  0  0  0  0  0  0  0  0  0  0
   13.1118  -12.2296    4.9176 C   0  0  0  0  0  0  0  0  0  0  0  0
   12.5067  -10.3688    7.9959 C   0  0  0  0  0  0  0  0  0  0  0  0
   13.9800  -11.4068    3.9799 C   0  0  0  0  0  0  0  0  0  0  0  0
   21.1000   -9.4302    1.5465 H   0  0  0  0  0  0  0  0  0  0  0  0
   19.7368  -11.7908    5.5059 H   0  0  0  0  0  0  0  0  0  0  0  0
   17.9259  -12.8339    3.0627 H   0  0  0  0  0  0  0  0  0  0  0  0
   17.1571  -11.3995    3.1974 H   0  0  0  0  0  0  0  0  0  0  0  0
   17.7946  -13.1786    5.3839 H   0  0  0  0  0  0  0  0  0  0  0  0
   16.2904  -10.9227    7.6499 H   0  0  0  0  0  0  0  0  0  0  0  0
   17.2125  -12.2683    7.5741 H   0  0  0  0  0  0  0  0  0  0  0  0
   15.2348  -13.2414    7.9592 H   0  0  0  0  0  0  0  0  0  0  0  0
   15.1582  -13.1721    6.3294 H   0  0  0  0  0  0  0  0  0  0  0  0
   14.1501  -10.9377    9.2055 H   0  0  0  0  0  0  0  0  0  0  0  0
   12.1822  -12.2808    4.5524 H   0  0  0  0  0  0  0  0  0  0  0  0
   13.4895  -13.1521    4.9981 H   0  0  0  0  0  0  0  0  0  0  0  0
   11.9938   -9.7389    8.5793 H   0  0  0  0  0  0  0  0  0  0  0  0
   13.9993  -11.8388    3.0783 H   0  0  0  0  0  0  0  0  0  0  0  0
   13.6023  -10.4843    3.8993 H   0  0  0  0  0  0  0  0  0  0  0  0
   14.9095  -11.3556    4.3451 H   0  0  0  0  0  0  0  0  0  0  0  0
  1  2  1  0  0  0  0
  2  3  2  0  0  0  0
  2  4  1  0  0  0  0
  3  5  1  0  0  0  0
  3  6  1  0  0  0  0
  4  7  2  0  0  0  0
  6  8  2  0  0  0  0
  7  9  1  0  0  0  0
  8 10  1  0  0  0  0
 10 11  1  0  0  0  0
 11 12  1  0  0  0  0
 12 13  2  0  0  0  0
 12 14  1  0  0  0  0
 14 15  1  0  0  0  0
 15 16  1  0  0  0  0
 16 17  1  0  0  0  0
 16 18  1  0  0  0  0
 17 19  2  0  0  0  0
 17 20  1  0  0  0  0
 18 21  2  0  0  0  0
 20 22  1  0  0  0  0
  7  8  1  0  0  0  0
 19 21  1  0  0  0  0
  4 23  1  0  0  0  0
  6 24  1  0  0  0  0
 10 25  1  0  0  0  0
 10 26  1  0  0  0  0
 11 27  1  0  0  0  0
 14 28  1  0  0  0  0
 14 29  1  0  0  0  0
 15 30  1  0  0  0  0
 15 31  1  0  0  0  0
 18 32  1  0  0  0  0
 20 33  1  0  0  0  0
 20 34  1  0  0  0  0
 21 35  1  0  0  0  0
 22 36  1  0  0  0  0
 22 37  1  0  0  0  0
 22 38  1  0  0  0  0
M  END
> <BIOSOLVEIT.HYDE_ESTIMATED_AFFINITY_LOWER_BOUNDARY [nM]>
182171.023237

> <BIOSOLVEIT.HYDE_ESTIMATED_AFFINITY_UPPER_BOUNDARY [nM]>
18099768.238901

> <BIOSOLVEIT.HYDE_LIGAND_EFFICIENCY range: ++, +, 0, -, -->
--

> <BIOSOLVEIT.HYDE_LIGAND_LIPOPHILIC_EFFICIENCY range: ++, +, 0, -, -->
--

> <BIOSOLVEIT.INTER_CLASH range: red, yellow, green>
green

> <BIOSOLVEIT.INTRA_CLASH range: red, yellow, green>
green

> <BIOSOLVEIT.LOGP>
3.707

> <BIOSOLVEIT.MOLECULAR WEIGHT>
388.666

> <BIOSOLVEIT.MOLECULE_CHECKSUM>
LTE1LjY0NTI7MC43MTExNDY=

> <BIOSOLVEIT.TORSION_QUALITY range: red, yellow, green, not rotatable>
yellow

> <BIOSOLVEIT.TPSA>
46.92

> <BIOSOLVEIT.SEESAR_FAVORITE>
favorite

> <smc_score>
0.563

> <QED_score>
0.767

> <distance>
0.729

> <SimilarityPheSA_1>
0.65

> <Smiles>
CCc1nccn1CCC(=O)NCc1cc(Cl)c(Br)cc1F

> <Similarity_SkelSpheres>
0.551

> <Cluster No>
167.0

> <QueryID>
JAN-GHE-5a013bed-2

> <SimilarityPheSA>
0.6501

> <Postera series>
3-aminopyridine-like

> <PDB_code>
Mpro-x10466

> <Approach>
DGM_exploratory_RL

> <ID>
20210628_410

> <SimilarityPheSA_2>
0.717

> <OPTIBRIUM.logD>
3.53373

> <OPTIBRIUM.BBB category>
+

> <OPTIBRIUM.logP>
3.53373

> <OPTIBRIUM.P-gp category>
no

> <OPTIBRIUM.logS>
1.69296

> <OPTIBRIUM.HIA category>
+

> <OPTIBRIUM.PPB90 category>
high

> <OPTIBRIUM.2D6 affinity category>
medium

> <OPTIBRIUM.hERG pIC50>
4.97697

> <OPTIBRIUM.2C9 pKi>
5.1457

> <OPTIBRIUM.BBB log([brain]:[blood])>
-0.00943705

> <OPTIBRIUM.logS @ pH7.4>
1.69296

$$$$
Compound 1143_1_001
haSeeSAR  07122114523D 1   1.00000     0.00000     0
SeeSAR 11.0.2 hazemaj
 41 43  0  0  0  0            999 V2000
   17.2958  -18.3763    3.7904 Cl  0  0  0  0  0  0  0  0  0  0  0  0
   15.6033  -18.3167    4.3386 C   0  0  0  0  0  0  0  0  0  0  0  0
   15.1047  -19.2981    5.1890 C   0  0  0  0  0  0  0  0  0  0  0  0
   14.7711  -17.2846    3.9160 C   0  0  0  0  0  0  0  0  0  0  0  0
   16.1757  -20.6151    5.7241 Cl  0  0  0  0  0  0  0  0  0  0  0  0
   13.7832  -19.2589    5.6221 C   0  0  0  0  0  0  0  0  0  0  0  0
   13.4484  -17.2382    4.3453 C   0  0  0  0  0  0  0  0  0  0  0  0
   15.3068  -16.2076    2.9867 C   0  0  0  0  0  0  0  0  0  0  0  0
   12.9585  -18.2231    5.1961 C   0  0  0  0  0  0  0  0  0  0  0  0
   15.5022  -14.9607    3.7421 N   0  3  1  0  0  0  0  0  0  0  0  0
   15.9525  -15.2502    5.1068 C   0  0  0  0  0  0  0  0  0  0  0  0
   16.5111  -14.1598    3.0385 C   0  0  0  0  0  0  0  0  0  0  0  0
   15.9202  -13.9889    5.9594 C   0  0  0  0  0  0  0  0  0  0  0  0
   17.2020  -13.2234    4.0226 C   0  0  0  0  0  0  0  0  0  0  0  0
   16.2429  -12.8573    5.0716 N   0  0  0  0  0  0  0  0  0  0  0  0
   15.6943  -11.5784    5.2189 C   0  0  0  0  0  0  0  0  0  0  0  0
   16.1749  -10.6277    4.6022 O   0  0  0  0  0  0  0  0  0  0  0  0
   14.5595  -11.3731    6.0982 C   0  0  0  0  0  0  0  0  0  0  0  0
   13.3398  -10.8951    5.6303 C   0  0  0  0  0  0  0  0  0  0  0  0
   14.6825  -11.6579    7.4536 C   0  0  0  0  0  0  0  0  0  0  0  0
   12.3048  -10.7126    6.4638 N   0  0  0  0  0  0  0  0  0  0  0  0
   13.6005  -11.4643    8.3058 C   0  0  0  0  0  0  0  0  0  0  0  0
   12.4090  -10.9838    7.7731 C   0  0  0  0  0  0  0  0  0  0  0  0
   13.4302  -19.9676    6.2331 H   0  0  0  0  0  0  0  0  0  0  0  0
   12.8501  -16.4964    4.0421 H   0  0  0  0  0  0  0  0  0  0  0  0
   14.6526  -16.0502    2.2468 H   0  0  0  0  0  0  0  0  0  0  0  0
   16.1806  -16.5043    2.6014 H   0  0  0  0  0  0  0  0  0  0  0  0
   12.0075  -18.1865    5.5033 H   0  0  0  0  0  0  0  0  0  0  0  0
   16.8877  -15.6030    5.0767 H   0  0  0  0  0  0  0  0  0  0  0  0
   15.3500  -15.9372    5.5132 H   0  0  0  0  0  0  0  0  0  0  0  0
   16.0674  -13.6209    2.3225 H   0  0  0  0  0  0  0  0  0  0  0  0
   17.1895  -14.7678    2.6261 H   0  0  0  0  0  0  0  0  0  0  0  0
   16.5969  -14.0532    6.6929 H   0  0  0  0  0  0  0  0  0  0  0  0
   15.0103  -13.8656    6.3554 H   0  0  0  0  0  0  0  0  0  0  0  0
   17.5099  -12.4003    3.5452 H   0  0  0  0  0  0  0  0  0  0  0  0
   17.9889  -13.6853    4.4317 H   0  0  0  0  0  0  0  0  0  0  0  0
   13.2331  -10.6845    4.6587 H   0  0  0  0  0  0  0  0  0  0  0  0
   15.5488  -12.0018    7.8157 H   0  0  0  0  0  0  0  0  0  0  0  0
   13.6777  -11.6667    9.2820 H   0  0  0  0  0  0  0  0  0  0  0  0
   11.6219  -10.8389    8.3726 H   0  0  0  0  0  0  0  0  0  0  0  0
   14.6405  -14.4544    3.7766 H   0  0  0  0  0  0  0  0  0  0  0  0
  1  2  1  0  0  0  0
  2  3  2  0  0  0  0
  2  4  1  0  0  0  0
  3  5  1  0  0  0  0
  3  6  1  0  0  0  0
  4  7  2  0  0  0  0
  4  8  1  0  0  0  0
  6  9  2  0  0  0  0
  8 10  1  0  0  0  0
 10 11  1  0  0  0  0
 10 12  1  0  0  0  0
 11 13  1  0  0  0  0
 12 14  1  0  0  0  0
 13 15  1  0  0  0  0
 15 16  1  0  0  0  0
 16 17  2  0  0  0  0
 16 18  1  0  0  0  0
 18 19  2  0  0  0  0
 18 20  1  0  0  0  0
 19 21  1  0  0  0  0
 20 22  2  0  0  0  0
 21 23  2  0  0  0  0
  7  9  1  0  0  0  0
 14 15  1  0  0  0  0
 22 23  1  0  0  0  0
  6 24  1  0  0  0  0
  7 25  1  0  0  0  0
  8 26  1  0  0  0  0
  8 27  1  0  0  0  0
  9 28  1  0  0  0  0
 11 29  1  0  0  0  0
 11 30  1  0  0  0  0
 12 31  1  0  0  0  0
 12 32  1  0  0  0  0
 13 33  1  0  0  0  0
 13 34  1  0  0  0  0
 14 35  1  0  0  0  0
 14 36  1  0  0  0  0
 19 37  1  0  0  0  0
 20 38  1  0  0  0  0
 22 39  1  0  0  0  0
 23 40  1  0  0  0  0
 10 41  1  0  0  0  0
M  CHG  1  10   1
M  END
> <BIOSOLVEIT.HYDE_ESTIMATED_AFFINITY_LOWER_BOUNDARY [nM]>
87524.957861

> <BIOSOLVEIT.HYDE_ESTIMATED_AFFINITY_UPPER_BOUNDARY [nM]>
8696122.052027

> <BIOSOLVEIT.HYDE_LIGAND_EFFICIENCY range: ++, +, 0, -, -->
--

> <BIOSOLVEIT.HYDE_LIGAND_LIPOPHILIC_EFFICIENCY range: ++, +, 0, -, -->
--

> <BIOSOLVEIT.INTER_CLASH range: red, yellow, green>
green

> <BIOSOLVEIT.INTRA_CLASH range: red, yellow, green>
green

> <BIOSOLVEIT.LOGP>
1.9293

> <BIOSOLVEIT.MOLECULAR WEIGHT>
351.255

> <BIOSOLVEIT.MOLECULE_CHECKSUM>
LTE3LjQ2MjM7MC43NTkyMzM=

> <BIOSOLVEIT.TORSION_QUALITY range: red, yellow, green, not rotatable>
green

> <BIOSOLVEIT.TPSA>
37.64

> <BIOSOLVEIT.SEESAR_FAVORITE>
favorite

> <smc_score>
0.563

> <QED_score>
0.852

> <distance>
0.672

> <SimilarityPheSA_1>
0.668

> <Smiles>
O=C(c1cccnc1)N1CCN(Cc2cccc(Cl)c2Cl)CC1

> <Similarity_SkelSpheres>
0.704

> <Cluster No>
168.0

> <QueryID>
JAN-GHE-5a013bed-2

> <SimilarityPheSA>
0.668

> <Postera series>
3-aminopyridine-like

> <PDB_code>
Mpro-x10466

> <Approach>
DGM_exploratory_RL

> <ID>
20210628_413

> <SimilarityPheSA_2>
0.793

> <OPTIBRIUM.logD>
1.37193

> <OPTIBRIUM.BBB category>
+

> <OPTIBRIUM.logP>
1.70112

> <OPTIBRIUM.P-gp category>
no

> <OPTIBRIUM.logS>
3.03698

> <OPTIBRIUM.HIA category>
+

> <OPTIBRIUM.PPB90 category>
low

> <OPTIBRIUM.2D6 affinity category>
low

> <OPTIBRIUM.hERG pIC50>
5.07873

> <OPTIBRIUM.2C9 pKi>
5.01209

> <OPTIBRIUM.BBB log([brain]:[blood])>
-0.127647

> <OPTIBRIUM.logS @ pH7.4>
1.77271

$$$$
Compound 1143_1_002
haSeeSAR  07122114523D 1   1.00000     0.00000     0
SeeSAR 11.0.2 hazemaj
 41 43  0  0  0  0            999 V2000
   15.5371  -17.8776    1.2840 Cl  0  0  0  0  0  0  0  0  0  0  0  0
   14.7943  -18.0900    2.8875 C   0  0  0  0  0  0  0  0  0  0  0  0
   15.0583  -19.2302    3.6392 C   0  0  0  0  0  0  0  0  0  0  0  0
   13.9438  -17.1128    3.3954 C   0  0  0  0  0  0  0  0  0  0  0  0
   16.1467  -20.4758    2.9818 Cl  0  0  0  0  0  0  0  0  0  0  0  0
   14.4819  -19.4042    4.8934 C   0  0  0  0  0  0  0  0  0  0  0  0
   13.3639  -17.2790    4.6491 C   0  0  0  0  0  0  0  0  0  0  0  0
   13.6490  -15.8633    2.5814 C   0  0  0  0  0  0  0  0  0  0  0  0
   13.6340  -18.4219    5.3941 C   0  0  0  0  0  0  0  0  0  0  0  0
   14.3417  -14.7125    3.1811 N   0  3  1  0  0  0  0  0  0  0  0  0
   15.5732  -15.1435    3.8496 C   0  0  0  0  0  0  0  0  0  0  0  0
   14.6580  -13.7651    2.1056 C   0  0  0  0  0  0  0  0  0  0  0  0
   16.1608  -14.0055    4.6735 C   0  0  0  0  0  0  0  0  0  0  0  0
   15.8614  -12.9186    2.5034 C   0  0  0  0  0  0  0  0  0  0  0  0
   15.8540  -12.7518    3.9617 N   0  0  0  0  0  0  0  0  0  0  0  0
   15.5884  -11.5402    4.6095 C   0  0  0  0  0  0  0  0  0  0  0  0
   16.2684  -10.5455    4.3575 O   0  0  0  0  0  0  0  0  0  0  0  0
   14.5121  -11.4565    5.5778 C   0  0  0  0  0  0  0  0  0  0  0  0
   13.2834  -10.8827    5.2683 C   0  0  0  0  0  0  0  0  0  0  0  0
   14.7027  -11.9607    6.8595 C   0  0  0  0  0  0  0  0  0  0  0  0
   12.3033  -10.8161    6.1816 N   0  0  0  0  0  0  0  0  0  0  0  0
   13.6771  -11.8852    7.7960 C   0  0  0  0  0  0  0  0  0  0  0  0
   12.4729  -11.2989    7.4213 C   0  0  0  0  0  0  0  0  0  0  0  0
   14.6751  -20.2263    5.4289 H   0  0  0  0  0  0  0  0  0  0  0  0
   12.7530  -16.5767    5.0146 H   0  0  0  0  0  0  0  0  0  0  0  0
   12.6635  -15.6936    2.5762 H   0  0  0  0  0  0  0  0  0  0  0  0
   13.9697  -15.9933    1.6431 H   0  0  0  0  0  0  0  0  0  0  0  0
   13.2162  -18.5381    6.2952 H   0  0  0  0  0  0  0  0  0  0  0  0
   16.2391  -15.4283    3.1602 H   0  0  0  0  0  0  0  0  0  0  0  0
   15.3675  -15.9141    4.4528 H   0  0  0  0  0  0  0  0  0  0  0  0
   13.8710  -13.1693    1.9456 H   0  0  0  0  0  0  0  0  0  0  0  0
   14.8691  -14.2704    1.2690 H   0  0  0  0  0  0  0  0  0  0  0  0
   17.1508  -14.1188    4.7578 H   0  0  0  0  0  0  0  0  0  0  0  0
   15.7480  -13.9928    5.5842 H   0  0  0  0  0  0  0  0  0  0  0  0
   15.8047  -12.0234    2.0614 H   0  0  0  0  0  0  0  0  0  0  0  0
   16.7040  -13.3770    2.2209 H   0  0  0  0  0  0  0  0  0  0  0  0
   13.1284  -10.5144    4.3515 H   0  0  0  0  0  0  0  0  0  0  0  0
   15.5770  -12.3775    7.1080 H   0  0  0  0  0  0  0  0  0  0  0  0
   13.8031  -12.2454    8.7203 H   0  0  0  0  0  0  0  0  0  0  0  0
   11.7258  -11.2367    8.0830 H   0  0  0  0  0  0  0  0  0  0  0  0
   13.7391  -14.2715    3.8463 H   0  0  0  0  0  0  0  0  0  0  0  0
  1  2  1  0  0  0  0
  2  3  2  0  0  0  0
  2  4  1  0  0  0  0
  3  5  1  0  0  0  0
  3  6  1  0  0  0  0
  4  7  2  0  0  0  0
  4  8  1  0  0  0  0
  6  9  2  0  0  0  0
  8 10  1  0  0  0  0
 10 11  1  0  0  0  0
 10 12  1  0  0  0  0
 11 13  1  0  0  0  0
 12 14  1  0  0  0  0
 13 15  1  0  0  0  0
 15 16  1  0  0  0  0
 16 17  2  0  0  0  0
 16 18  1  0  0  0  0
 18 19  2  0  0  0  0
 18 20  1  0  0  0  0
 19 21  1  0  0  0  0
 20 22  2  0  0  0  0
 21 23  2  0  0  0  0
  7  9  1  0  0  0  0
 14 15  1  0  0  0  0
 22 23  1  0  0  0  0
  6 24  1  0  0  0  0
  7 25  1  0  0  0  0
  8 26  1  0  0  0  0
  8 27  1  0  0  0  0
  9 28  1  0  0  0  0
 11 29  1  0  0  0  0
 11 30  1  0  0  0  0
 12 31  1  0  0  0  0
 12 32  1  0  0  0  0
 13 33  1  0  0  0  0
 13 34  1  0  0  0  0
 14 35  1  0  0  0  0
 14 36  1  0  0  0  0
 19 37  1  0  0  0  0
 20 38  1  0  0  0  0
 22 39  1  0  0  0  0
 23 40  1  0  0  0  0
 10 41  1  0  0  0  0
M  CHG  1  10   1
M  END
> <BIOSOLVEIT.HYDE_ESTIMATED_AFFINITY_LOWER_BOUNDARY [nM]>
153997.145407

> <BIOSOLVEIT.HYDE_ESTIMATED_AFFINITY_UPPER_BOUNDARY [nM]>
15300526.899361

> <BIOSOLVEIT.HYDE_LIGAND_EFFICIENCY range: ++, +, 0, -, -->
--

> <BIOSOLVEIT.HYDE_LIGAND_LIPOPHILIC_EFFICIENCY range: ++, +, 0, -, -->
--

> <BIOSOLVEIT.INTER_CLASH range: red, yellow, green>
green

> <BIOSOLVEIT.INTRA_CLASH range: red, yellow, green>
green

> <BIOSOLVEIT.LOGP>
1.9293

> <BIOSOLVEIT.MOLECULAR WEIGHT>
351.255

> <BIOSOLVEIT.MOLECULE_CHECKSUM>
LTE2LjA2MTc7MC42OTgzMzU=

> <BIOSOLVEIT.TORSION_QUALITY range: red, yellow, green, not rotatable>
yellow

> <BIOSOLVEIT.TPSA>
37.64

> <BIOSOLVEIT.SEESAR_FAVORITE>
favorite

> <smc_score>
0.563

> <QED_score>
0.852

> <distance>
0.672

> <SimilarityPheSA_1>
0.668

> <Smiles>
O=C(c1cccnc1)N1CCN(Cc2cccc(Cl)c2Cl)CC1

> <Similarity_SkelSpheres>
0.704

> <Cluster No>
168.0

> <QueryID>
JAN-GHE-5a013bed-2

> <SimilarityPheSA>
0.668

> <Postera series>
3-aminopyridine-like

> <PDB_code>
Mpro-x10466

> <Approach>
DGM_exploratory_RL

> <ID>
20210628_413

> <SimilarityPheSA_2>
0.793

> <OPTIBRIUM.logD>
1.37193

> <OPTIBRIUM.BBB category>
+

> <OPTIBRIUM.logP>
1.70112

> <OPTIBRIUM.P-gp category>
no

> <OPTIBRIUM.logS>
3.03698

> <OPTIBRIUM.HIA category>
+

> <OPTIBRIUM.PPB90 category>
low

> <OPTIBRIUM.2D6 affinity category>
low

> <OPTIBRIUM.hERG pIC50>
5.07873

> <OPTIBRIUM.2C9 pKi>
5.01209

> <OPTIBRIUM.BBB log([brain]:[blood])>
-0.127647

> <OPTIBRIUM.logS @ pH7.4>
1.77271

$$$$
Compound 1143_1_005
haSeeSAR  07122114523D 1   1.00000     0.00000     0
SeeSAR 11.0.2 hazemaj
 41 43  0  0  0  0            999 V2000
   13.2230  -18.1858    5.0595 Cl  0  0  0  0  0  0  0  0  0  0  0  0
   14.3489  -18.1297    3.6820 C   0  0  0  0  0  0  0  0  0  0  0  0
   15.2287  -19.1817    3.4497 C   0  0  0  0  0  0  0  0  0  0  0  0
   14.3524  -17.0290    2.8307 C   0  0  0  0  0  0  0  0  0  0  0  0
   15.2183  -20.5855    4.5440 Cl  0  0  0  0  0  0  0  0  0  0  0  0
   16.1120  -19.1458    2.3754 C   0  0  0  0  0  0  0  0  0  0  0  0
   15.2322  -16.9858    1.7536 C   0  0  0  0  0  0  0  0  0  0  0  0
   13.3946  -15.8743    3.0763 C   0  0  0  0  0  0  0  0  0  0  0  0
   16.1080  -18.0423    1.5285 C   0  0  0  0  0  0  0  0  0  0  0  0
   14.1279  -14.7478    3.6739 N   0  3  1  0  0  0  0  0  0  0  0  0
   15.2325  -15.2349    4.5056 C   0  0  0  0  0  0  0  0  0  0  0  0
   14.6489  -13.9177    2.5812 C   0  0  0  0  0  0  0  0  0  0  0  0
   15.8364  -14.0945    5.3141 C   0  0  0  0  0  0  0  0  0  0  0  0
   15.8794  -13.1546    3.0568 C   0  0  0  0  0  0  0  0  0  0  0  0
   15.7317  -12.8765    4.4905 N   0  0  0  0  0  0  0  0  0  0  0  0
   15.5176  -11.5999    5.0222 C   0  0  0  0  0  0  0  0  0  0  0  0
   16.2234  -10.6574    4.6635 O   0  0  0  0  0  0  0  0  0  0  0  0
   14.4641  -11.3874    5.9958 C   0  0  0  0  0  0  0  0  0  0  0  0
   13.2296  -10.8633    5.6257 C   0  0  0  0  0  0  0  0  0  0  0  0
   14.6768  -11.7100    7.3318 C   0  0  0  0  0  0  0  0  0  0  0  0
   12.2616  -10.6713    6.5338 N   0  0  0  0  0  0  0  0  0  0  0  0
   13.6618  -11.5038    8.2602 C   0  0  0  0  0  0  0  0  0  0  0  0
   12.4499  -10.9767    7.8262 C   0  0  0  0  0  0  0  0  0  0  0  0
   16.7425  -19.9049    2.2138 H   0  0  0  0  0  0  0  0  0  0  0  0
   15.2348  -16.1952    1.1415 H   0  0  0  0  0  0  0  0  0  0  0  0
   12.6704  -16.1689    3.6998 H   0  0  0  0  0  0  0  0  0  0  0  0
   12.9904  -15.5860    2.2083 H   0  0  0  0  0  0  0  0  0  0  0  0
   16.7387  -18.0087    0.7533 H   0  0  0  0  0  0  0  0  0  0  0  0
   15.9377  -15.6302    3.9170 H   0  0  0  0  0  0  0  0  0  0  0  0
   14.8890  -15.9355    5.1310 H   0  0  0  0  0  0  0  0  0  0  0  0
   13.9455  -13.2677    2.2932 H   0  0  0  0  0  0  0  0  0  0  0  0
   14.8983  -14.5025    1.8094 H   0  0  0  0  0  0  0  0  0  0  0  0
   16.7958  -14.2892    5.5180 H   0  0  0  0  0  0  0  0  0  0  0  0
   15.3315  -13.9750    6.1688 H   0  0  0  0  0  0  0  0  0  0  0  0
   15.9581  -12.2943    2.5530 H   0  0  0  0  0  0  0  0  0  0  0  0
   16.6987  -13.7070    2.9033 H   0  0  0  0  0  0  0  0  0  0  0  0
   13.0617  -10.6263    4.6688 H   0  0  0  0  0  0  0  0  0  0  0  0
   15.5554  -12.0883    7.6237 H   0  0  0  0  0  0  0  0  0  0  0  0
   13.8010  -11.7308    9.2240 H   0  0  0  0  0  0  0  0  0  0  0  0
   11.7122  -10.8240    8.4838 H   0  0  0  0  0  0  0  0  0  0  0  0
   13.5033  -14.2049    4.2353 H   0  0  0  0  0  0  0  0  0  0  0  0
  1  2  1  0  0  0  0
  2  3  2  0  0  0  0
  2  4  1  0  0  0  0
  3  5  1  0  0  0  0
  3  6  1  0  0  0  0
  4  7  2  0  0  0  0
  4  8  1  0  0  0  0
  6  9  2  0  0  0  0
  8 10  1  0  0  0  0
 10 11  1  0  0  0  0
 10 12  1  0  0  0  0
 11 13  1  0  0  0  0
 12 14  1  0  0  0  0
 13 15  1  0  0  0  0
 15 16  1  0  0  0  0
 16 17  2  0  0  0  0
 16 18  1  0  0  0  0
 18 19  2  0  0  0  0
 18 20  1  0  0  0  0
 19 21  1  0  0  0  0
 20 22  2  0  0  0  0
 21 23  2  0  0  0  0
  7  9  1  0  0  0  0
 14 15  1  0  0  0  0
 22 23  1  0  0  0  0
  6 24  1  0  0  0  0
  7 25  1  0  0  0  0
  8 26  1  0  0  0  0
  8 27  1  0  0  0  0
  9 28  1  0  0  0  0
 11 29  1  0  0  0  0
 11 30  1  0  0  0  0
 12 31  1  0  0  0  0
 12 32  1  0  0  0  0
 13 33  1  0  0  0  0
 13 34  1  0  0  0  0
 14 35  1  0  0  0  0
 14 36  1  0  0  0  0
 19 37  1  0  0  0  0
 20 38  1  0  0  0  0
 22 39  1  0  0  0  0
 23 40  1  0  0  0  0
 10 41  1  0  0  0  0
M  CHG  1  10   1
M  END
> <BIOSOLVEIT.HYDE_ESTIMATED_AFFINITY_LOWER_BOUNDARY [nM]>
534353.013616

> <BIOSOLVEIT.HYDE_ESTIMATED_AFFINITY_UPPER_BOUNDARY [nM]>
53091131.247848

> <BIOSOLVEIT.HYDE_LIGAND_EFFICIENCY range: ++, +, 0, -, -->
--

> <BIOSOLVEIT.HYDE_LIGAND_LIPOPHILIC_EFFICIENCY range: ++, +, 0, -, -->
--

> <BIOSOLVEIT.INTER_CLASH range: red, yellow, green>
green

> <BIOSOLVEIT.INTRA_CLASH range: red, yellow, green>
green

> <BIOSOLVEIT.LOGP>
1.9293

> <BIOSOLVEIT.MOLECULAR WEIGHT>
351.255

> <BIOSOLVEIT.MOLECULE_CHECKSUM>
LTEyLjk3NzY7MC41NjQyNDM=

> <BIOSOLVEIT.TORSION_QUALITY range: red, yellow, green, not rotatable>
yellow

> <BIOSOLVEIT.TPSA>
37.64

> <BIOSOLVEIT.SEESAR_FAVORITE>
favorite

> <smc_score>
0.563

> <QED_score>
0.852

> <distance>
0.672

> <SimilarityPheSA_1>
0.668

> <Smiles>
O=C(c1cccnc1)N1CCN(Cc2cccc(Cl)c2Cl)CC1

> <Similarity_SkelSpheres>
0.704

> <Cluster No>
168.0

> <QueryID>
JAN-GHE-5a013bed-2

> <SimilarityPheSA>
0.668

> <Postera series>
3-aminopyridine-like

> <PDB_code>
Mpro-x10466

> <Approach>
DGM_exploratory_RL

> <ID>
20210628_413

> <SimilarityPheSA_2>
0.793

> <OPTIBRIUM.logD>
1.37193

> <OPTIBRIUM.BBB category>
+

> <OPTIBRIUM.logP>
1.70112

> <OPTIBRIUM.P-gp category>
no

> <OPTIBRIUM.logS>
3.03698

> <OPTIBRIUM.HIA category>
+

> <OPTIBRIUM.PPB90 category>
low

> <OPTIBRIUM.2D6 affinity category>
low

> <OPTIBRIUM.hERG pIC50>
5.07873

> <OPTIBRIUM.2C9 pKi>
5.01209

> <OPTIBRIUM.BBB log([brain]:[blood])>
-0.127647

> <OPTIBRIUM.logS @ pH7.4>
1.77271

$$$$
Compound 1143_1_006
haSeeSAR  07122114523D 1   1.00000     0.00000     0
SeeSAR 11.0.2 hazemaj
 41 43  0  0  0  0            999 V2000
   15.6019  -17.8470    1.3313 Cl  0  0  0  0  0  0  0  0  0  0  0  0
   14.8330  -18.0805    2.9196 C   0  0  0  0  0  0  0  0  0  0  0  0
   15.1006  -19.2209    3.6695 C   0  0  0  0  0  0  0  0  0  0  0  0
   13.9584  -17.1192    3.4171 C   0  0  0  0  0  0  0  0  0  0  0  0
   16.2199  -20.4458    3.0253 Cl  0  0  0  0  0  0  0  0  0  0  0  0
   14.5039  -19.4112    4.9118 C   0  0  0  0  0  0  0  0  0  0  0  0
   13.3580  -17.3019    4.6590 C   0  0  0  0  0  0  0  0  0  0  0  0
   13.6596  -15.8695    2.6049 C   0  0  0  0  0  0  0  0  0  0  0  0
   13.6319  -18.4450    5.4023 C   0  0  0  0  0  0  0  0  0  0  0  0
   14.3493  -14.7176    3.2058 N   0  3  1  0  0  0  0  0  0  0  0  0
   15.5727  -15.1485    3.8891 C   0  0  0  0  0  0  0  0  0  0  0  0
   14.6793  -13.7767    2.1285 C   0  0  0  0  0  0  0  0  0  0  0  0
   16.1551  -14.0079    4.7129 C   0  0  0  0  0  0  0  0  0  0  0  0
   15.8810  -12.9316    2.5341 C   0  0  0  0  0  0  0  0  0  0  0  0
   15.8592  -12.7570    3.9913 N   0  0  0  0  0  0  0  0  0  0  0  0
   15.5905  -11.5412    4.6300 C   0  0  0  0  0  0  0  0  0  0  0  0
   16.2684  -10.5469    4.3710 O   0  0  0  0  0  0  0  0  0  0  0  0
   14.5133  -11.4528    5.5969 C   0  0  0  0  0  0  0  0  0  0  0  0
   13.2839  -10.8827    5.2828 C   0  0  0  0  0  0  0  0  0  0  0  0
   14.7037  -11.9483    6.8820 C   0  0  0  0  0  0  0  0  0  0  0  0
   12.3032  -10.8116    6.1950 N   0  0  0  0  0  0  0  0  0  0  0  0
   13.6774  -11.8682    7.8173 C   0  0  0  0  0  0  0  0  0  0  0  0
   12.4726  -11.2861    7.4379 C   0  0  0  0  0  0  0  0  0  0  0  0
   14.6997  -20.2335    5.4461 H   0  0  0  0  0  0  0  0  0  0  0  0
   12.7298  -16.6113    5.0171 H   0  0  0  0  0  0  0  0  0  0  0  0
   12.6736  -15.7026    2.6008 H   0  0  0  0  0  0  0  0  0  0  0  0
   13.9799  -15.9975    1.6664 H   0  0  0  0  0  0  0  0  0  0  0  0
   13.1992  -18.5729    6.2948 H   0  0  0  0  0  0  0  0  0  0  0  0
   16.2449  -15.4388    3.2080 H   0  0  0  0  0  0  0  0  0  0  0  0
   15.3587  -15.9153    4.4941 H   0  0  0  0  0  0  0  0  0  0  0  0
   13.8957  -13.1796    1.9573 H   0  0  0  0  0  0  0  0  0  0  0  0
   14.8975  -14.2871    1.2967 H   0  0  0  0  0  0  0  0  0  0  0  0
   17.1439  -14.1234    4.8079 H   0  0  0  0  0  0  0  0  0  0  0  0
   15.7330  -13.9890    5.6192 H   0  0  0  0  0  0  0  0  0  0  0  0
   15.8313  -12.0385    2.0868 H   0  0  0  0  0  0  0  0  0  0  0  0
   16.7252  -13.3939    2.2626 H   0  0  0  0  0  0  0  0  0  0  0  0
   13.1291  -10.5207    4.3635 H   0  0  0  0  0  0  0  0  0  0  0  0
   15.5785  -12.3622    7.1338 H   0  0  0  0  0  0  0  0  0  0  0  0
   13.8032  -12.2222    8.7441 H   0  0  0  0  0  0  0  0  0  0  0  0
   11.7249  -11.2205    8.0987 H   0  0  0  0  0  0  0  0  0  0  0  0
   13.7413  -14.2714    3.8624 H   0  0  0  0  0  0  0  0  0  0  0  0
  1  2  1  0  0  0  0
  2  3  2  0  0  0  0
  2  4  1  0  0  0  0
  3  5  1  0  0  0  0
  3  6  1  0  0  0  0
  4  7  2  0  0  0  0
  4  8  1  0  0  0  0
  6  9  2  0  0  0  0
  8 10  1  0  0  0  0
 10 11  1  0  0  0  0
 10 12  1  0  0  0  0
 11 13  1  0  0  0  0
 12 14  1  0  0  0  0
 13 15  1  0  0  0  0
 15 16  1  0  0  0  0
 16 17  2  0  0  0  0
 16 18  1  0  0  0  0
 18 19  2  0  0  0  0
 18 20  1  0  0  0  0
 19 21  1  0  0  0  0
 20 22  2  0  0  0  0
 21 23  2  0  0  0  0
  7  9  1  0  0  0  0
 14 15  1  0  0  0  0
 22 23  1  0  0  0  0
  6 24  1  0  0  0  0
  7 25  1  0  0  0  0
  8 26  1  0  0  0  0
  8 27  1  0  0  0  0
  9 28  1  0  0  0  0
 11 29  1  0  0  0  0
 11 30  1  0  0  0  0
 12 31  1  0  0  0  0
 12 32  1  0  0  0  0
 13 33  1  0  0  0  0
 13 34  1  0  0  0  0
 14 35  1  0  0  0  0
 14 36  1  0  0  0  0
 19 37  1  0  0  0  0
 20 38  1  0  0  0  0
 22 39  1  0  0  0  0
 23 40  1  0  0  0  0
 10 41  1  0  0  0  0
M  CHG  1  10   1
M  END
> <BIOSOLVEIT.HYDE_ESTIMATED_AFFINITY_LOWER_BOUNDARY [nM]>
172581.986094

> <BIOSOLVEIT.HYDE_ESTIMATED_AFFINITY_UPPER_BOUNDARY [nM]>
17147040.703869

> <BIOSOLVEIT.HYDE_LIGAND_EFFICIENCY range: ++, +, 0, -, -->
--

> <BIOSOLVEIT.HYDE_LIGAND_LIPOPHILIC_EFFICIENCY range: ++, +, 0, -, -->
--

> <BIOSOLVEIT.INTER_CLASH range: red, yellow, green>
green

> <BIOSOLVEIT.INTRA_CLASH range: red, yellow, green>
green

> <BIOSOLVEIT.LOGP>
1.9293

> <BIOSOLVEIT.MOLECULAR WEIGHT>
351.255

> <BIOSOLVEIT.MOLECULE_CHECKSUM>
LTE1Ljc3OTM7MC42ODYwNTU=

> <BIOSOLVEIT.TORSION_QUALITY range: red, yellow, green, not rotatable>
yellow

> <BIOSOLVEIT.TPSA>
37.64

> <BIOSOLVEIT.SEESAR_FAVORITE>
favorite

> <smc_score>
0.563

> <QED_score>
0.852

> <distance>
0.672

> <SimilarityPheSA_1>
0.668

> <Smiles>
O=C(c1cccnc1)N1CCN(Cc2cccc(Cl)c2Cl)CC1

> <Similarity_SkelSpheres>
0.704

> <Cluster No>
168.0

> <QueryID>
JAN-GHE-5a013bed-2

> <SimilarityPheSA>
0.668

> <Postera series>
3-aminopyridine-like

> <PDB_code>
Mpro-x10466

> <Approach>
DGM_exploratory_RL

> <ID>
20210628_413

> <SimilarityPheSA_2>
0.793

> <OPTIBRIUM.logD>
1.37193

> <OPTIBRIUM.BBB category>
+

> <OPTIBRIUM.logP>
1.70112

> <OPTIBRIUM.P-gp category>
no

> <OPTIBRIUM.logS>
3.03698

> <OPTIBRIUM.HIA category>
+

> <OPTIBRIUM.PPB90 category>
low

> <OPTIBRIUM.2D6 affinity category>
low

> <OPTIBRIUM.hERG pIC50>
5.07873

> <OPTIBRIUM.2C9 pKi>
5.01209

> <OPTIBRIUM.BBB log([brain]:[blood])>
-0.127647

> <OPTIBRIUM.logS @ pH7.4>
1.77271

$$$$
Compound 1143_1_008
haSeeSAR  07122114523D 1   1.00000     0.00000     0
SeeSAR 11.0.2 hazemaj
 41 43  0  0  0  0            999 V2000
   13.2081  -18.0703    4.8574 Cl  0  0  0  0  0  0  0  0  0  0  0  0
   14.4334  -18.0733    3.5662 C   0  0  0  0  0  0  0  0  0  0  0  0
   15.3078  -19.1465    3.4291 C   0  0  0  0  0  0  0  0  0  0  0  0
   14.5205  -16.9981    2.6872 C   0  0  0  0  0  0  0  0  0  0  0  0
   15.1900  -20.5174    4.5582 Cl  0  0  0  0  0  0  0  0  0  0  0  0
   16.2682  -19.1569    2.4227 C   0  0  0  0  0  0  0  0  0  0  0  0
   15.4780  -17.0013    1.6777 C   0  0  0  0  0  0  0  0  0  0  0  0
   13.5695  -15.8207    2.8290 C   0  0  0  0  0  0  0  0  0  0  0  0
   16.3477  -18.0786    1.5476 C   0  0  0  0  0  0  0  0  0  0  0  0
   14.2671  -14.7029    3.4828 N   0  3  1  0  0  0  0  0  0  0  0  0
   15.3309  -15.2014    4.3596 C   0  0  0  0  0  0  0  0  0  0  0  0
   14.8382  -13.8509    2.4329 C   0  0  0  0  0  0  0  0  0  0  0  0
   15.8888  -14.0741    5.2180 C   0  0  0  0  0  0  0  0  0  0  0  0
   16.0402  -13.0925    2.9832 C   0  0  0  0  0  0  0  0  0  0  0  0
   15.8200  -12.8415    4.4125 N   0  0  0  0  0  0  0  0  0  0  0  0
   15.5740  -11.5757    4.9561 C   0  0  0  0  0  0  0  0  0  0  0  0
   16.2706  -10.6169    4.6231 O   0  0  0  0  0  0  0  0  0  0  0  0
   14.4985  -11.3934    5.9116 C   0  0  0  0  0  0  0  0  0  0  0  0
   13.2637  -10.8700    5.5426 C   0  0  0  0  0  0  0  0  0  0  0  0
   14.6961  -11.7477    7.2415 C   0  0  0  0  0  0  0  0  0  0  0  0
   12.2846  -10.7101    6.4452 N   0  0  0  0  0  0  0  0  0  0  0  0
   13.6715  -11.5768    8.1664 C   0  0  0  0  0  0  0  0  0  0  0  0
   12.4610  -11.0482    7.7311 C   0  0  0  0  0  0  0  0  0  0  0  0
   16.8944  -19.9309    2.3296 H   0  0  0  0  0  0  0  0  0  0  0  0
   15.5407  -16.2289    1.0456 H   0  0  0  0  0  0  0  0  0  0  0  0
   12.7828  -16.0926    3.3833 H   0  0  0  0  0  0  0  0  0  0  0  0
   13.2563  -15.5343    1.9236 H   0  0  0  0  0  0  0  0  0  0  0  0
   17.0344  -18.0781    0.8206 H   0  0  0  0  0  0  0  0  0  0  0  0
   16.0664  -15.5834    3.8000 H   0  0  0  0  0  0  0  0  0  0  0  0
   14.9597  -15.9147    4.9542 H   0  0  0  0  0  0  0  0  0  0  0  0
   14.1473  -13.1983    2.1220 H   0  0  0  0  0  0  0  0  0  0  0  0
   15.1284  -14.4206    1.6640 H   0  0  0  0  0  0  0  0  0  0  0  0
   16.8377  -14.2692    5.4661 H   0  0  0  0  0  0  0  0  0  0  0  0
   15.3413  -13.9721    6.0485 H   0  0  0  0  0  0  0  0  0  0  0  0
   16.1402  -12.2229    2.4998 H   0  0  0  0  0  0  0  0  0  0  0  0
   16.8685  -13.6392    2.8607 H   0  0  0  0  0  0  0  0  0  0  0  0
   13.1037  -10.6092    4.5906 H   0  0  0  0  0  0  0  0  0  0  0  0
   15.5750  -12.1253    7.5331 H   0  0  0  0  0  0  0  0  0  0  0  0
   13.8025  -11.8290    9.1251 H   0  0  0  0  0  0  0  0  0  0  0  0
   11.7143  -10.9187    8.3836 H   0  0  0  0  0  0  0  0  0  0  0  0
   13.6129  -14.1726    4.0221 H   0  0  0  0  0  0  0  0  0  0  0  0
  1  2  1  0  0  0  0
  2  3  2  0  0  0  0
  2  4  1  0  0  0  0
  3  5  1  0  0  0  0
  3  6  1  0  0  0  0
  4  7  2  0  0  0  0
  4  8  1  0  0  0  0
  6  9  2  0  0  0  0
  8 10  1  0  0  0  0
 10 11  1  0  0  0  0
 10 12  1  0  0  0  0
 11 13  1  0  0  0  0
 12 14  1  0  0  0  0
 13 15  1  0  0  0  0
 15 16  1  0  0  0  0
 16 17  2  0  0  0  0
 16 18  1  0  0  0  0
 18 19  2  0  0  0  0
 18 20  1  0  0  0  0
 19 21  1  0  0  0  0
 20 22  2  0  0  0  0
 21 23  2  0  0  0  0
  7  9  1  0  0  0  0
 14 15  1  0  0  0  0
 22 23  1  0  0  0  0
  6 24  1  0  0  0  0
  7 25  1  0  0  0  0
  8 26  1  0  0  0  0
  8 27  1  0  0  0  0
  9 28  1  0  0  0  0
 11 29  1  0  0  0  0
 11 30  1  0  0  0  0
 12 31  1  0  0  0  0
 12 32  1  0  0  0  0
 13 33  1  0  0  0  0
 13 34  1  0  0  0  0
 14 35  1  0  0  0  0
 14 36  1  0  0  0  0
 19 37  1  0  0  0  0
 20 38  1  0  0  0  0
 22 39  1  0  0  0  0
 23 40  1  0  0  0  0
 10 41  1  0  0  0  0
M  CHG  1  10   1
M  END
> <BIOSOLVEIT.HYDE_ESTIMATED_AFFINITY_LOWER_BOUNDARY [nM]>
493503.744537

> <BIOSOLVEIT.HYDE_ESTIMATED_AFFINITY_UPPER_BOUNDARY [nM]>
49032514.844855

> <BIOSOLVEIT.HYDE_LIGAND_EFFICIENCY range: ++, +, 0, -, -->
--

> <BIOSOLVEIT.HYDE_LIGAND_LIPOPHILIC_EFFICIENCY range: ++, +, 0, -, -->
--

> <BIOSOLVEIT.INTER_CLASH range: red, yellow, green>
green

> <BIOSOLVEIT.INTRA_CLASH range: red, yellow, green>
green

> <BIOSOLVEIT.LOGP>
1.9293

> <BIOSOLVEIT.MOLECULAR WEIGHT>
351.255

> <BIOSOLVEIT.MOLECULE_CHECKSUM>
LTEzLjE3NDc7MC41NzI4MTQ=

> <BIOSOLVEIT.TORSION_QUALITY range: red, yellow, green, not rotatable>
yellow

> <BIOSOLVEIT.TPSA>
37.64

> <BIOSOLVEIT.SEESAR_FAVORITE>
favorite

> <smc_score>
0.563

> <QED_score>
0.852

> <distance>
0.672

> <SimilarityPheSA_1>
0.668

> <Smiles>
O=C(c1cccnc1)N1CCN(Cc2cccc(Cl)c2Cl)CC1

> <Similarity_SkelSpheres>
0.704

> <Cluster No>
168.0

> <QueryID>
JAN-GHE-5a013bed-2

> <SimilarityPheSA>
0.668

> <Postera series>
3-aminopyridine-like

> <PDB_code>
Mpro-x10466

> <Approach>
DGM_exploratory_RL

> <ID>
20210628_413

> <SimilarityPheSA_2>
0.793

> <OPTIBRIUM.logD>
1.37193

> <OPTIBRIUM.BBB category>
+

> <OPTIBRIUM.logP>
1.70112

> <OPTIBRIUM.P-gp category>
no

> <OPTIBRIUM.logS>
3.03698

> <OPTIBRIUM.HIA category>
+

> <OPTIBRIUM.PPB90 category>
low

> <OPTIBRIUM.2D6 affinity category>
low

> <OPTIBRIUM.hERG pIC50>
5.07873

> <OPTIBRIUM.2C9 pKi>
5.01209

> <OPTIBRIUM.BBB log([brain]:[blood])>
-0.127647

> <OPTIBRIUM.logS @ pH7.4>
1.77271

$$$$
Compound 1143_1_009
haSeeSAR  07122114523D 1   1.00000     0.00000     0
SeeSAR 11.0.2 hazemaj
 41 43  0  0  0  0            999 V2000
   13.5870  -17.2826    2.7832 Cl  0  0  0  0  0  0  0  0  0  0  0  0
   15.2414  -17.7650    3.2289 C   0  0  0  0  0  0  0  0  0  0  0  0
   16.0329  -18.4740    2.3313 C   0  0  0  0  0  0  0  0  0  0  0  0
   15.7494  -17.4334    4.4813 C   0  0  0  0  0  0  0  0  0  0  0  0
   15.3752  -18.8949    0.7318 Cl  0  0  0  0  0  0  0  0  0  0  0  0
   17.3270  -18.8550    2.6716 C   0  0  0  0  0  0  0  0  0  0  0  0
   17.0428  -17.8101    4.8288 C   0  0  0  0  0  0  0  0  0  0  0  0
   14.8919  -16.6588    5.4690 C   0  0  0  0  0  0  0  0  0  0  0  0
   17.8275  -18.5183    3.9250 C   0  0  0  0  0  0  0  0  0  0  0  0
   15.2838  -15.2410    5.4521 N   0  3  1  0  0  0  0  0  0  0  0  0
   16.6188  -15.0684    6.0326 C   0  0  0  0  0  0  0  0  0  0  0  0
   15.2797  -14.7882    4.0559 C   0  0  0  0  0  0  0  0  0  0  0  0
   16.9247  -13.5912    6.2403 C   0  0  0  0  0  0  0  0  0  0  0  0
   16.2337  -13.6104    3.8946 C   0  0  0  0  0  0  0  0  0  0  0  0
   16.2585  -12.8535    5.1519 N   0  0  0  0  0  0  0  0  0  0  0  0
   15.7143  -11.5734    5.3058 C   0  0  0  0  0  0  0  0  0  0  0  0
   16.2128  -10.6173    4.7120 O   0  0  0  0  0  0  0  0  0  0  0  0
   14.5631  -11.3735    6.1646 C   0  0  0  0  0  0  0  0  0  0  0  0
   13.3668  -10.8660    5.6675 C   0  0  0  0  0  0  0  0  0  0  0  0
   14.6406  -11.6915    7.5164 C   0  0  0  0  0  0  0  0  0  0  0  0
   12.3077  -10.6856    6.4701 N   0  0  0  0  0  0  0  0  0  0  0  0
   13.5325  -11.4974    8.3341 C   0  0  0  0  0  0  0  0  0  0  0  0
   12.3653  -10.9868    7.7758 C   0  0  0  0  0  0  0  0  0  0  0  0
   17.8911  -19.3651    2.0223 H   0  0  0  0  0  0  0  0  0  0  0  0
   17.4084  -17.5717    5.7286 H   0  0  0  0  0  0  0  0  0  0  0  0
   15.0242  -17.0303    6.3880 H   0  0  0  0  0  0  0  0  0  0  0  0
   13.9293  -16.7417    5.2114 H   0  0  0  0  0  0  0  0  0  0  0  0
   18.7569  -18.7871    4.1777 H   0  0  0  0  0  0  0  0  0  0  0  0
   17.2995  -15.4614    5.4144 H   0  0  0  0  0  0  0  0  0  0  0  0
   16.6576  -15.5393    6.9139 H   0  0  0  0  0  0  0  0  0  0  0  0
   14.3553  -14.5043    3.8013 H   0  0  0  0  0  0  0  0  0  0  0  0
   15.5737  -15.5375    3.4625 H   0  0  0  0  0  0  0  0  0  0  0  0
   17.9121  -13.4371    6.2050 H   0  0  0  0  0  0  0  0  0  0  0  0
   16.5717  -13.2890    7.1258 H   0  0  0  0  0  0  0  0  0  0  0  0
   15.9176  -13.0200    3.1519 H   0  0  0  0  0  0  0  0  0  0  0  0
   17.1519  -13.9466    3.6854 H   0  0  0  0  0  0  0  0  0  0  0  0
   13.2958  -10.6324    4.6977 H   0  0  0  0  0  0  0  0  0  0  0  0
   15.4891  -12.0580    7.8984 H   0  0  0  0  0  0  0  0  0  0  0  0
   13.5741  -11.7214    9.3078 H   0  0  0  0  0  0  0  0  0  0  0  0
   11.5616  -10.8430    8.3533 H   0  0  0  0  0  0  0  0  0  0  0  0
   14.6213  -14.7066    5.9769 H   0  0  0  0  0  0  0  0  0  0  0  0
  1  2  1  0  0  0  0
  2  3  2  0  0  0  0
  2  4  1  0  0  0  0
  3  5  1  0  0  0  0
  3  6  1  0  0  0  0
  4  7  2  0  0  0  0
  4  8  1  0  0  0  0
  6  9  2  0  0  0  0
  8 10  1  0  0  0  0
 10 11  1  0  0  0  0
 10 12  1  0  0  0  0
 11 13  1  0  0  0  0
 12 14  1  0  0  0  0
 13 15  1  0  0  0  0
 15 16  1  0  0  0  0
 16 17  2  0  0  0  0
 16 18  1  0  0  0  0
 18 19  2  0  0  0  0
 18 20  1  0  0  0  0
 19 21  1  0  0  0  0
 20 22  2  0  0  0  0
 21 23  2  0  0  0  0
  7  9  1  0  0  0  0
 14 15  1  0  0  0  0
 22 23  1  0  0  0  0
  6 24  1  0  0  0  0
  7 25  1  0  0  0  0
  8 26  1  0  0  0  0
  8 27  1  0  0  0  0
  9 28  1  0  0  0  0
 11 29  1  0  0  0  0
 11 30  1  0  0  0  0
 12 31  1  0  0  0  0
 12 32  1  0  0  0  0
 13 33  1  0  0  0  0
 13 34  1  0  0  0  0
 14 35  1  0  0  0  0
 14 36  1  0  0  0  0
 19 37  1  0  0  0  0
 20 38  1  0  0  0  0
 22 39  1  0  0  0  0
 23 40  1  0  0  0  0
 10 41  1  0  0  0  0
M  CHG  1  10   1
M  END
> <BIOSOLVEIT.HYDE_ESTIMATED_AFFINITY_LOWER_BOUNDARY [nM]>
137143.576775

> <BIOSOLVEIT.HYDE_ESTIMATED_AFFINITY_UPPER_BOUNDARY [nM]>
13626025.209558

> <BIOSOLVEIT.HYDE_LIGAND_EFFICIENCY range: ++, +, 0, -, -->
--

> <BIOSOLVEIT.HYDE_LIGAND_LIPOPHILIC_EFFICIENCY range: ++, +, 0, -, -->
--

> <BIOSOLVEIT.INTER_CLASH range: red, yellow, green>
green

> <BIOSOLVEIT.INTRA_CLASH range: red, yellow, green>
yellow

> <BIOSOLVEIT.LOGP>
1.9293

> <BIOSOLVEIT.MOLECULAR WEIGHT>
351.255

> <BIOSOLVEIT.MOLECULE_CHECKSUM>
LTE2LjM0OTswLjcxMDgyOA==

> <BIOSOLVEIT.TORSION_QUALITY range: red, yellow, green, not rotatable>
yellow

> <BIOSOLVEIT.TPSA>
37.64

> <BIOSOLVEIT.SEESAR_FAVORITE>
favorite

> <smc_score>
0.563

> <QED_score>
0.852

> <distance>
0.672

> <SimilarityPheSA_1>
0.668

> <Smiles>
O=C(c1cccnc1)N1CCN(Cc2cccc(Cl)c2Cl)CC1

> <Similarity_SkelSpheres>
0.704

> <Cluster No>
168.0

> <QueryID>
JAN-GHE-5a013bed-2

> <SimilarityPheSA>
0.668

> <Postera series>
3-aminopyridine-like

> <PDB_code>
Mpro-x10466

> <Approach>
DGM_exploratory_RL

> <ID>
20210628_413

> <SimilarityPheSA_2>
0.793

> <OPTIBRIUM.logD>
1.37193

> <OPTIBRIUM.BBB category>
+

> <OPTIBRIUM.logP>
1.70112

> <OPTIBRIUM.P-gp category>
no

> <OPTIBRIUM.logS>
3.03698

> <OPTIBRIUM.HIA category>
+

> <OPTIBRIUM.PPB90 category>
low

> <OPTIBRIUM.2D6 affinity category>
low

> <OPTIBRIUM.hERG pIC50>
5.07873

> <OPTIBRIUM.2C9 pKi>
5.01209

> <OPTIBRIUM.BBB log([brain]:[blood])>
-0.127647

> <OPTIBRIUM.logS @ pH7.4>
1.77271

$$$$
Compound 1152_1_01
haSeeSAR  07122114523D 1   1.00000     0.00000     0
SeeSAR 11.0.2 hazemaj
 45 47  0  0  0  0            999 V2000
   22.9775   -9.0535    7.0022 Cl  0  0  0  0  0  0  0  0  0  0  0  0
   21.7559   -9.4065    5.7569 C   0  0  0  0  0  0  0  0  0  0  0  0
   21.2964  -10.7075    5.5843 C   0  0  0  0  0  0  0  0  0  0  0  0
   21.2672   -8.3749    4.9621 C   0  0  0  0  0  0  0  0  0  0  0  0
   21.9349  -12.0133    6.6118 Cl  0  0  0  0  0  0  0  0  0  0  0  0
   20.3419  -10.9987    4.6157 C   0  0  0  0  0  0  0  0  0  0  0  0
   20.3126   -8.6638    3.9927 C   0  0  0  0  0  0  0  0  0  0  0  0
   19.8541   -9.9656    3.8222 C   0  0  0  0  0  0  0  0  0  0  0  0
   19.8378   -7.6638    3.2203 O   0  0  0  0  0  0  0  0  0  0  0  0
   18.8101  -10.2803    2.7630 C   0  0  0  0  0  0  0  0  0  0  0  0
   20.3364   -6.3440    3.3818 C   0  0  0  0  0  0  0  0  0  0  0  0
   18.0088  -11.4354    3.1927 N   0  0  0  0  0  0  0  0  0  0  0  0
   16.9397  -11.2536    3.9505 C   0  0  0  0  0  0  0  0  0  0  0  0
   16.6160  -10.1173    4.2958 O   0  0  0  0  0  0  0  0  0  0  0  0
   16.1111  -12.4480    4.3948 C   0  0  0  0  0  0  0  0  0  0  0  0
   15.7037  -12.2696    5.8496 C   0  0  0  0  0  0  0  0  0  0  0  0
   14.5007  -11.6822    6.3033 C   0  0  0  0  0  0  0  0  0  0  0  0
   16.4484  -12.6550    6.9242 C   0  0  0  0  0  0  0  0  0  0  0  0
   14.5535  -11.7304    7.6733 C   0  0  0  0  0  0  0  0  0  0  0  0
   13.3624  -11.1125    5.7376 C   0  0  0  0  0  0  0  0  0  0  0  0
   15.7327  -12.3168    8.0330 N   0  0  0  0  0  0  0  0  0  0  0  0
   13.5169  -11.2315    8.4552 C   0  0  0  0  0  0  0  0  0  0  0  0
   12.3631  -10.6310    6.4929 N   0  0  0  0  0  0  0  0  0  0  0  0
   16.1771  -12.5576    9.4138 C   0  0  0  0  0  0  0  0  0  0  0  0
   12.4057  -10.6728    7.8328 C   0  0  0  0  0  0  0  0  0  0  0  0
   17.4803  -11.8160    9.6631 C   0  0  0  0  0  0  0  0  0  0  0  0
   21.5973   -7.4392    5.0860 H   0  0  0  0  0  0  0  0  0  0  0  0
   20.0120  -11.9345    4.4919 H   0  0  0  0  0  0  0  0  0  0  0  0
   19.2658  -10.4937    1.8988 H   0  0  0  0  0  0  0  0  0  0  0  0
   18.2127   -9.4882    2.6381 H   0  0  0  0  0  0  0  0  0  0  0  0
   19.8795   -5.7336    2.7349 H   0  0  0  0  0  0  0  0  0  0  0  0
   20.1596   -6.0328    4.3155 H   0  0  0  0  0  0  0  0  0  0  0  0
   21.3213   -6.3363    3.2087 H   0  0  0  0  0  0  0  0  0  0  0  0
   18.2717  -12.3585    2.9122 H   0  0  0  0  0  0  0  0  0  0  0  0
   16.6529  -13.2832    4.3005 H   0  0  0  0  0  0  0  0  0  0  0  0
   15.2920  -12.5159    3.8253 H   0  0  0  0  0  0  0  0  0  0  0  0
   17.3443  -13.0990    6.9028 H   0  0  0  0  0  0  0  0  0  0  0  0
   13.2879  -11.0609    4.7417 H   0  0  0  0  0  0  0  0  0  0  0  0
   13.5700  -11.2741    9.4530 H   0  0  0  0  0  0  0  0  0  0  0  0
   16.3194  -13.5377    9.5520 H   0  0  0  0  0  0  0  0  0  0  0  0
   15.4795  -12.2290   10.0505 H   0  0  0  0  0  0  0  0  0  0  0  0
   11.6498  -10.3076    8.3763 H   0  0  0  0  0  0  0  0  0  0  0  0
   17.7825  -11.9797   10.6023 H   0  0  0  0  0  0  0  0  0  0  0  0
   18.1779  -12.1446    9.0264 H   0  0  0  0  0  0  0  0  0  0  0  0
   17.3378  -10.8359    9.5249 H   0  0  0  0  0  0  0  0  0  0  0  0
  1  2  1  0  0  0  0
  2  3  2  0  0  0  0
  2  4  1  0  0  0  0
  3  5  1  0  0  0  0
  3  6  1  0  0  0  0
  4  7  2  0  0  0  0
  6  8  2  0  0  0  0
  7  9  1  0  0  0  0
  8 10  1  0  0  0  0
  9 11  1  0  0  0  0
 10 12  1  0  0  0  0
 12 13  1  0  0  0  0
 13 14  2  0  0  0  0
 13 15  1  0  0  0  0
 15 16  1  0  0  0  0
 16 17  1  0  0  0  0
 16 18  2  0  0  0  0
 17 19  2  0  0  0  0
 17 20  1  0  0  0  0
 18 21  1  0  0  0  0
 19 22  1  0  0  0  0
 20 23  2  0  0  0  0
 21 24  1  0  0  0  0
 22 25  2  0  0  0  0
 24 26  1  0  0  0  0
  7  8  1  0  0  0  0
 19 21  1  0  0  0  0
 23 25  1  0  0  0  0
  4 27  1  0  0  0  0
  6 28  1  0  0  0  0
 10 29  1  0  0  0  0
 10 30  1  0  0  0  0
 11 31  1  0  0  0  0
 11 32  1  0  0  0  0
 11 33  1  0  0  0  0
 12 34  1  0  0  0  0
 15 35  1  0  0  0  0
 15 36  1  0  0  0  0
 18 37  1  0  0  0  0
 20 38  1  0  0  0  0
 22 39  1  0  0  0  0
 24 40  1  0  0  0  0
 24 41  1  0  0  0  0
 25 42  1  0  0  0  0
 26 43  1  0  0  0  0
 26 44  1  0  0  0  0
 26 45  1  0  0  0  0
M  END
> <BIOSOLVEIT.HYDE_ESTIMATED_AFFINITY_LOWER_BOUNDARY [nM]>
54166730.903890

> <BIOSOLVEIT.HYDE_ESTIMATED_AFFINITY_UPPER_BOUNDARY [nM]>
5381784974.360289

> <BIOSOLVEIT.HYDE_LIGAND_EFFICIENCY range: ++, +, 0, -, -->
--

> <BIOSOLVEIT.HYDE_LIGAND_LIPOPHILIC_EFFICIENCY range: ++, +, 0, -, -->
--

> <BIOSOLVEIT.INTER_CLASH range: red, yellow, green>
green

> <BIOSOLVEIT.INTRA_CLASH range: red, yellow, green>
green

> <BIOSOLVEIT.LOGP>
4.2305

> <BIOSOLVEIT.MOLECULAR WEIGHT>
392.284

> <BIOSOLVEIT.MOLECULE_CHECKSUM>
LTEuNTI3ODc7MC4wNTg3NjQx

> <BIOSOLVEIT.TORSION_QUALITY range: red, yellow, green, not rotatable>
yellow

> <BIOSOLVEIT.TPSA>
56.15

> <BIOSOLVEIT.SEESAR_FAVORITE>
favorite

> <smc_score>
0.813

> <QED_score>
0.683

> <distance>
0.652

> <SimilarityPheSA_1>
0.736

> <Smiles>
CCn1cc(CC(=O)NCc2cc(Cl)c(Cl)cc2OC)c2cnccc21

> <Similarity_SkelSpheres>
0.648

> <Cluster No>
171.0

> <QueryID>
MIC-UNK-91acba05-6

> <SimilarityPheSA>
0.7362

> <Postera series>
3-aminopyridine-like

> <PDB_code>
Mpro-x12710, Mpro-P0033

> <Approach>
DGM_exploratory_RL

> <ID>
20210628_422

> <SimilarityPheSA_2>
0.776

> <OPTIBRIUM.logD>
3.90839

> <OPTIBRIUM.BBB category>
-

> <OPTIBRIUM.logP>
3.90839

> <OPTIBRIUM.P-gp category>
no

> <OPTIBRIUM.logS>
0.770461

> <OPTIBRIUM.HIA category>
+

> <OPTIBRIUM.PPB90 category>
high

> <OPTIBRIUM.2D6 affinity category>
medium

> <OPTIBRIUM.hERG pIC50>
4.94539

> <OPTIBRIUM.2C9 pKi>
5.39998

> <OPTIBRIUM.BBB log([brain]:[blood])>
-0.360025

> <OPTIBRIUM.logS @ pH7.4>
0.770461

$$$$
Compound 1152_1_02
haSeeSAR  07122114523D 1   1.00000     0.00000     0
SeeSAR 11.0.2 hazemaj
 45 47  0  0  0  0            999 V2000
   24.2164   -9.5474    5.9632 Cl  0  0  0  0  0  0  0  0  0  0  0  0
   22.6328   -9.7293    5.1715 C   0  0  0  0  0  0  0  0  0  0  0  0
   22.5288   -9.6052    3.7905 C   0  0  0  0  0  0  0  0  0  0  0  0
   21.5061   -9.9958    5.9425 C   0  0  0  0  0  0  0  0  0  0  0  0
   23.9829   -9.2640    2.8222 Cl  0  0  0  0  0  0  0  0  0  0  0  0
   21.2982   -9.7452    3.1578 C   0  0  0  0  0  0  0  0  0  0  0  0
   20.2743  -10.1360    5.3118 C   0  0  0  0  0  0  0  0  0  0  0  0
   20.1727  -10.0120    3.9303 C   0  0  0  0  0  0  0  0  0  0  0  0
   19.1801  -10.3939    6.0587 O   0  0  0  0  0  0  0  0  0  0  0  0
   18.8262  -10.1664    3.2418 C   0  0  0  0  0  0  0  0  0  0  0  0
   19.2760  -10.4142    7.4753 C   0  0  0  0  0  0  0  0  0  0  0  0
   18.1665  -11.3884    3.7240 N   0  0  0  0  0  0  0  0  0  0  0  0
   16.9365  -11.3293    4.2075 C   0  0  0  0  0  0  0  0  0  0  0  0
   16.3444  -10.2511    4.2537 O   0  0  0  0  0  0  0  0  0  0  0  0
   16.2544  -12.5929    4.7060 C   0  0  0  0  0  0  0  0  0  0  0  0
   15.7489  -12.3709    6.1234 C   0  0  0  0  0  0  0  0  0  0  0  0
   14.5396  -11.7300    6.4771 C   0  0  0  0  0  0  0  0  0  0  0  0
   16.3974  -12.7631    7.2564 C   0  0  0  0  0  0  0  0  0  0  0  0
   14.4901  -11.7533    7.8479 C   0  0  0  0  0  0  0  0  0  0  0  0
   13.4690  -11.1291    5.8194 C   0  0  0  0  0  0  0  0  0  0  0  0
   15.6161  -12.3765    8.3035 N   0  0  0  0  0  0  0  0  0  0  0  0
   13.4193  -11.2006    8.5426 C   0  0  0  0  0  0  0  0  0  0  0  0
   12.4365  -10.5957    6.4906 N   0  0  0  0  0  0  0  0  0  0  0  0
   15.9486  -12.6066    9.7171 C   0  0  0  0  0  0  0  0  0  0  0  0
   12.3793  -10.6128    7.8306 C   0  0  0  0  0  0  0  0  0  0  0  0
   17.2941  -11.9730   10.0309 C   0  0  0  0  0  0  0  0  0  0  0  0
   21.5806  -10.0852    6.9356 H   0  0  0  0  0  0  0  0  0  0  0  0
   21.2239   -9.6556    2.1646 H   0  0  0  0  0  0  0  0  0  0  0  0
   18.9626  -10.2290    2.2531 H   0  0  0  0  0  0  0  0  0  0  0  0
   18.2528   -9.3738    3.4496 H   0  0  0  0  0  0  0  0  0  0  0  0
   18.3791  -10.6193    7.8672 H   0  0  0  0  0  0  0  0  0  0  0  0
   19.9304  -11.1167    7.7550 H   0  0  0  0  0  0  0  0  0  0  0  0
   19.5858   -9.5211    7.8012 H   0  0  0  0  0  0  0  0  0  0  0  0
   18.6476  -12.2643    3.6863 H   0  0  0  0  0  0  0  0  0  0  0  0
   16.9085  -13.3494    4.7000 H   0  0  0  0  0  0  0  0  0  0  0  0
   15.4839  -12.8138    4.1080 H   0  0  0  0  0  0  0  0  0  0  0  0
   17.2744  -13.2407    7.3087 H   0  0  0  0  0  0  0  0  0  0  0  0
   13.4695  -11.0943    4.8200 H   0  0  0  0  0  0  0  0  0  0  0  0
   13.3976  -11.2256    9.5421 H   0  0  0  0  0  0  0  0  0  0  0  0
   15.9940  -13.5899    9.8931 H   0  0  0  0  0  0  0  0  0  0  0  0
   15.2439  -12.1967   10.2963 H   0  0  0  0  0  0  0  0  0  0  0  0
   11.6004  -10.2089    8.3104 H   0  0  0  0  0  0  0  0  0  0  0  0
   17.5202  -12.1295   10.9923 H   0  0  0  0  0  0  0  0  0  0  0  0
   17.9987  -12.3830    9.4518 H   0  0  0  0  0  0  0  0  0  0  0  0
   17.2486  -10.9897    9.8550 H   0  0  0  0  0  0  0  0  0  0  0  0
  1  2  1  0  0  0  0
  2  3  2  0  0  0  0
  2  4  1  0  0  0  0
  3  5  1  0  0  0  0
  3  6  1  0  0  0  0
  4  7  2  0  0  0  0
  6  8  2  0  0  0  0
  7  9  1  0  0  0  0
  8 10  1  0  0  0  0
  9 11  1  0  0  0  0
 10 12  1  0  0  0  0
 12 13  1  0  0  0  0
 13 14  2  0  0  0  0
 13 15  1  0  0  0  0
 15 16  1  0  0  0  0
 16 17  1  0  0  0  0
 16 18  2  0  0  0  0
 17 19  2  0  0  0  0
 17 20  1  0  0  0  0
 18 21  1  0  0  0  0
 19 22  1  0  0  0  0
 20 23  2  0  0  0  0
 21 24  1  0  0  0  0
 22 25  2  0  0  0  0
 24 26  1  0  0  0  0
  7  8  1  0  0  0  0
 19 21  1  0  0  0  0
 23 25  1  0  0  0  0
  4 27  1  0  0  0  0
  6 28  1  0  0  0  0
 10 29  1  0  0  0  0
 10 30  1  0  0  0  0
 11 31  1  0  0  0  0
 11 32  1  0  0  0  0
 11 33  1  0  0  0  0
 12 34  1  0  0  0  0
 15 35  1  0  0  0  0
 15 36  1  0  0  0  0
 18 37  1  0  0  0  0
 20 38  1  0  0  0  0
 22 39  1  0  0  0  0
 24 40  1  0  0  0  0
 24 41  1  0  0  0  0
 25 42  1  0  0  0  0
 26 43  1  0  0  0  0
 26 44  1  0  0  0  0
 26 45  1  0  0  0  0
M  END
> <BIOSOLVEIT.HYDE_ESTIMATED_AFFINITY_LOWER_BOUNDARY [nM]>
6437894.522749

> <BIOSOLVEIT.HYDE_ESTIMATED_AFFINITY_UPPER_BOUNDARY [nM]>
639642884.679977

> <BIOSOLVEIT.HYDE_LIGAND_EFFICIENCY range: ++, +, 0, -, -->
--

> <BIOSOLVEIT.HYDE_LIGAND_LIPOPHILIC_EFFICIENCY range: ++, +, 0, -, -->
--

> <BIOSOLVEIT.INTER_CLASH range: red, yellow, green>
green

> <BIOSOLVEIT.INTRA_CLASH range: red, yellow, green>
green

> <BIOSOLVEIT.LOGP>
4.2305

> <BIOSOLVEIT.MOLECULAR WEIGHT>
392.284

> <BIOSOLVEIT.MOLECULE_CHECKSUM>
LTYuODA3NzE7MC4yNjE4MzU=

> <BIOSOLVEIT.TORSION_QUALITY range: red, yellow, green, not rotatable>
green

> <BIOSOLVEIT.TPSA>
56.15

> <BIOSOLVEIT.SEESAR_FAVORITE>
favorite

> <smc_score>
0.813

> <QED_score>
0.683

> <distance>
0.652

> <SimilarityPheSA_1>
0.736

> <Smiles>
CCn1cc(CC(=O)NCc2cc(Cl)c(Cl)cc2OC)c2cnccc21

> <Similarity_SkelSpheres>
0.648

> <Cluster No>
171.0

> <QueryID>
MIC-UNK-91acba05-6

> <SimilarityPheSA>
0.7362

> <Postera series>
3-aminopyridine-like

> <PDB_code>
Mpro-x12710, Mpro-P0033

> <Approach>
DGM_exploratory_RL

> <ID>
20210628_422

> <SimilarityPheSA_2>
0.776

> <OPTIBRIUM.logD>
3.90839

> <OPTIBRIUM.BBB category>
-

> <OPTIBRIUM.logP>
3.90839

> <OPTIBRIUM.P-gp category>
no

> <OPTIBRIUM.logS>
0.770461

> <OPTIBRIUM.HIA category>
+

> <OPTIBRIUM.PPB90 category>
high

> <OPTIBRIUM.2D6 affinity category>
medium

> <OPTIBRIUM.hERG pIC50>
4.94539

> <OPTIBRIUM.2C9 pKi>
5.39998

> <OPTIBRIUM.BBB log([brain]:[blood])>
-0.360025

> <OPTIBRIUM.logS @ pH7.4>
0.770461

$$$$
Compound 1152_1_03
haSeeSAR  07122114523D 1   1.00000     0.00000     0
SeeSAR 11.0.2 hazemaj
 45 47  0  0  0  0            999 V2000
   22.9806   -9.0524    6.9989 Cl  0  0  0  0  0  0  0  0  0  0  0  0
   21.7579   -9.4057    5.7548 C   0  0  0  0  0  0  0  0  0  0  0  0
   21.2978  -10.7065    5.5834 C   0  0  0  0  0  0  0  0  0  0  0  0
   21.2688   -8.3742    4.9600 C   0  0  0  0  0  0  0  0  0  0  0  0
   21.9367  -12.0121    6.6109 Cl  0  0  0  0  0  0  0  0  0  0  0  0
   20.3423  -10.9978    4.6157 C   0  0  0  0  0  0  0  0  0  0  0  0
   20.3132   -8.6633    3.9916 C   0  0  0  0  0  0  0  0  0  0  0  0
   19.8540   -9.9650    3.8221 C   0  0  0  0  0  0  0  0  0  0  0  0
   19.8381   -7.6635    3.2191 O   0  0  0  0  0  0  0  0  0  0  0  0
   18.8091  -10.2799    2.7640 C   0  0  0  0  0  0  0  0  0  0  0  0
   20.3368   -6.3437    3.3799 C   0  0  0  0  0  0  0  0  0  0  0  0
   18.0087  -11.4354    3.1941 N   0  0  0  0  0  0  0  0  0  0  0  0
   16.9397  -11.2543    3.9522 C   0  0  0  0  0  0  0  0  0  0  0  0
   16.6152  -10.1181    4.2973 O   0  0  0  0  0  0  0  0  0  0  0  0
   16.1122  -12.4491    4.3970 C   0  0  0  0  0  0  0  0  0  0  0  0
   15.7040  -12.2702    5.8516 C   0  0  0  0  0  0  0  0  0  0  0  0
   14.5008  -11.6826    6.3044 C   0  0  0  0  0  0  0  0  0  0  0  0
   16.4483  -12.6553    6.9265 C   0  0  0  0  0  0  0  0  0  0  0  0
   14.5529  -11.7302    7.6744 C   0  0  0  0  0  0  0  0  0  0  0  0
   13.3629  -11.1131    5.7380 C   0  0  0  0  0  0  0  0  0  0  0  0
   15.7319  -12.3166    8.0350 N   0  0  0  0  0  0  0  0  0  0  0  0
   13.5160  -11.2311    8.4558 C   0  0  0  0  0  0  0  0  0  0  0  0
   12.3632  -10.6312    6.4927 N   0  0  0  0  0  0  0  0  0  0  0  0
   16.1757  -12.5568    9.4160 C   0  0  0  0  0  0  0  0  0  0  0  0
   12.4052  -10.6725    7.8326 C   0  0  0  0  0  0  0  0  0  0  0  0
   17.4806  -11.8182    9.6647 C   0  0  0  0  0  0  0  0  0  0  0  0
   21.5994   -7.4385    5.0831 H   0  0  0  0  0  0  0  0  0  0  0  0
   20.0119  -11.9337    4.4926 H   0  0  0  0  0  0  0  0  0  0  0  0
   19.2639  -10.4928    1.8992 H   0  0  0  0  0  0  0  0  0  0  0  0
   18.2112   -9.4879    2.6399 H   0  0  0  0  0  0  0  0  0  0  0  0
   19.8795   -5.7335    2.7329 H   0  0  0  0  0  0  0  0  0  0  0  0
   20.1605   -6.0322    4.3136 H   0  0  0  0  0  0  0  0  0  0  0  0
   21.3217   -6.3361    3.2063 H   0  0  0  0  0  0  0  0  0  0  0  0
   18.2723  -12.3583    2.9137 H   0  0  0  0  0  0  0  0  0  0  0  0
   16.6548  -13.2839    4.3034 H   0  0  0  0  0  0  0  0  0  0  0  0
   15.2933  -12.5183    3.8272 H   0  0  0  0  0  0  0  0  0  0  0  0
   17.3441  -13.0994    6.9058 H   0  0  0  0  0  0  0  0  0  0  0  0
   13.2889  -11.0619    4.7420 H   0  0  0  0  0  0  0  0  0  0  0  0
   13.5686  -11.2734    9.4534 H   0  0  0  0  0  0  0  0  0  0  0  0
   16.3157  -13.5371    9.5554 H   0  0  0  0  0  0  0  0  0  0  0  0
   15.4788  -12.2259   10.0523 H   0  0  0  0  0  0  0  0  0  0  0  0
   11.6490  -10.3071    8.3755 H   0  0  0  0  0  0  0  0  0  0  0  0
   17.7824  -11.9815   10.6039 H   0  0  0  0  0  0  0  0  0  0  0  0
   18.1775  -12.1491    9.0284 H   0  0  0  0  0  0  0  0  0  0  0  0
   17.3405  -10.8379    9.5253 H   0  0  0  0  0  0  0  0  0  0  0  0
  1  2  1  0  0  0  0
  2  3  2  0  0  0  0
  2  4  1  0  0  0  0
  3  5  1  0  0  0  0
  3  6  1  0  0  0  0
  4  7  2  0  0  0  0
  6  8  2  0  0  0  0
  7  9  1  0  0  0  0
  8 10  1  0  0  0  0
  9 11  1  0  0  0  0
 10 12  1  0  0  0  0
 12 13  1  0  0  0  0
 13 14  2  0  0  0  0
 13 15  1  0  0  0  0
 15 16  1  0  0  0  0
 16 17  1  0  0  0  0
 16 18  2  0  0  0  0
 17 19  2  0  0  0  0
 17 20  1  0  0  0  0
 18 21  1  0  0  0  0
 19 22  1  0  0  0  0
 20 23  2  0  0  0  0
 21 24  1  0  0  0  0
 22 25  2  0  0  0  0
 24 26  1  0  0  0  0
  7  8  1  0  0  0  0
 19 21  1  0  0  0  0
 23 25  1  0  0  0  0
  4 27  1  0  0  0  0
  6 28  1  0  0  0  0
 10 29  1  0  0  0  0
 10 30  1  0  0  0  0
 11 31  1  0  0  0  0
 11 32  1  0  0  0  0
 11 33  1  0  0  0  0
 12 34  1  0  0  0  0
 15 35  1  0  0  0  0
 15 36  1  0  0  0  0
 18 37  1  0  0  0  0
 20 38  1  0  0  0  0
 22 39  1  0  0  0  0
 24 40  1  0  0  0  0
 24 41  1  0  0  0  0
 25 42  1  0  0  0  0
 26 43  1  0  0  0  0
 26 44  1  0  0  0  0
 26 45  1  0  0  0  0
M  END
> <BIOSOLVEIT.HYDE_ESTIMATED_AFFINITY_LOWER_BOUNDARY [nM]>
54430448.771541

> <BIOSOLVEIT.HYDE_ESTIMATED_AFFINITY_UPPER_BOUNDARY [nM]>
5407986903.734846

> <BIOSOLVEIT.HYDE_LIGAND_EFFICIENCY range: ++, +, 0, -, -->
--

> <BIOSOLVEIT.HYDE_LIGAND_LIPOPHILIC_EFFICIENCY range: ++, +, 0, -, -->
--

> <BIOSOLVEIT.INTER_CLASH range: red, yellow, green>
green

> <BIOSOLVEIT.INTRA_CLASH range: red, yellow, green>
green

> <BIOSOLVEIT.LOGP>
4.2305

> <BIOSOLVEIT.MOLECULAR WEIGHT>
392.284

> <BIOSOLVEIT.MOLECULE_CHECKSUM>
LTEuNTE1ODM7MC4wNTgzMDE=

> <BIOSOLVEIT.TORSION_QUALITY range: red, yellow, green, not rotatable>
yellow

> <BIOSOLVEIT.TPSA>
56.15

> <BIOSOLVEIT.SEESAR_FAVORITE>
favorite

> <smc_score>
0.813

> <QED_score>
0.683

> <distance>
0.652

> <SimilarityPheSA_1>
0.736

> <Smiles>
CCn1cc(CC(=O)NCc2cc(Cl)c(Cl)cc2OC)c2cnccc21

> <Similarity_SkelSpheres>
0.648

> <Cluster No>
171.0

> <QueryID>
MIC-UNK-91acba05-6

> <SimilarityPheSA>
0.7362

> <Postera series>
3-aminopyridine-like

> <PDB_code>
Mpro-x12710, Mpro-P0033

> <Approach>
DGM_exploratory_RL

> <ID>
20210628_422

> <SimilarityPheSA_2>
0.776

> <OPTIBRIUM.logD>
3.90839

> <OPTIBRIUM.BBB category>
-

> <OPTIBRIUM.logP>
3.90839

> <OPTIBRIUM.P-gp category>
no

> <OPTIBRIUM.logS>
0.770461

> <OPTIBRIUM.HIA category>
+

> <OPTIBRIUM.PPB90 category>
high

> <OPTIBRIUM.2D6 affinity category>
medium

> <OPTIBRIUM.hERG pIC50>
4.94539

> <OPTIBRIUM.2C9 pKi>
5.39998

> <OPTIBRIUM.BBB log([brain]:[blood])>
-0.360025

> <OPTIBRIUM.logS @ pH7.4>
0.770461

$$$$
Compound 1152_1_04
haSeeSAR  07122114523D 1   1.00000     0.00000     0
SeeSAR 11.0.2 hazemaj
 45 47  0  0  0  0            999 V2000
   23.5046   -9.5209    5.6124 Cl  0  0  0  0  0  0  0  0  0  0  0  0
   21.9968   -9.7323    4.6905 C   0  0  0  0  0  0  0  0  0  0  0  0
   21.1988  -10.8493    4.9116 C   0  0  0  0  0  0  0  0  0  0  0  0
   21.6254   -8.7749    3.7523 C   0  0  0  0  0  0  0  0  0  0  0  0
   21.6922  -12.0628    6.1167 Cl  0  0  0  0  0  0  0  0  0  0  0  0
   20.0178  -11.0279    4.1992 C   0  0  0  0  0  0  0  0  0  0  0  0
   20.4447   -8.9515    3.0387 C   0  0  0  0  0  0  0  0  0  0  0  0
   19.6479  -10.0692    3.2617 C   0  0  0  0  0  0  0  0  0  0  0  0
   20.0834   -8.0236    2.1274 O   0  0  0  0  0  0  0  0  0  0  0  0
   18.3572  -10.2610    2.4818 C   0  0  0  0  0  0  0  0  0  0  0  0
   19.4983   -6.8014    2.5521 C   0  0  0  0  0  0  0  0  0  0  0  0
   17.6554  -11.4523    2.9810 N   0  0  0  0  0  0  0  0  0  0  0  0
   16.7562  -11.3351    3.9444 C   0  0  0  0  0  0  0  0  0  0  0  0
   16.5072  -10.2286    4.4227 O   0  0  0  0  0  0  0  0  0  0  0  0
   16.0305  -12.5670    4.4605 C   0  0  0  0  0  0  0  0  0  0  0  0
   15.6307  -12.3490    5.9120 C   0  0  0  0  0  0  0  0  0  0  0  0
   14.4375  -11.7345    6.3555 C   0  0  0  0  0  0  0  0  0  0  0  0
   16.3737  -12.7197    6.9929 C   0  0  0  0  0  0  0  0  0  0  0  0
   14.4943  -11.7513    7.7261 C   0  0  0  0  0  0  0  0  0  0  0  0
   13.3054  -11.1623    5.7802 C   0  0  0  0  0  0  0  0  0  0  0  0
   15.6664  -12.3457    8.0958 N   0  0  0  0  0  0  0  0  0  0  0  0
   13.4674  -11.2200    8.4994 C   0  0  0  0  0  0  0  0  0  0  0  0
   12.3154  -10.6492    6.5272 N   0  0  0  0  0  0  0  0  0  0  0  0
   16.1120  -12.5603    9.4804 C   0  0  0  0  0  0  0  0  0  0  0  0
   12.3619  -10.6604    7.8676 C   0  0  0  0  0  0  0  0  0  0  0  0
   17.4346  -11.8452    9.7036 C   0  0  0  0  0  0  0  0  0  0  0  0
   22.1991   -7.9714    3.5932 H   0  0  0  0  0  0  0  0  0  0  0  0
   19.4444  -11.8316    4.3583 H   0  0  0  0  0  0  0  0  0  0  0  0
   18.5684  -10.3805    1.5117 H   0  0  0  0  0  0  0  0  0  0  0  0
   17.7742   -9.4569    2.5994 H   0  0  0  0  0  0  0  0  0  0  0  0
   19.2939   -6.2347    1.7541 H   0  0  0  0  0  0  0  0  0  0  0  0
   18.6529   -6.9922    3.0509 H   0  0  0  0  0  0  0  0  0  0  0  0
   20.1362   -6.3167    3.1506 H   0  0  0  0  0  0  0  0  0  0  0  0
   17.8576  -12.3512    2.5924 H   0  0  0  0  0  0  0  0  0  0  0  0
   16.6351  -13.3611    4.3970 H   0  0  0  0  0  0  0  0  0  0  0  0
   15.2115  -12.7267    3.9095 H   0  0  0  0  0  0  0  0  0  0  0  0
   17.2632  -13.1765    6.9792 H   0  0  0  0  0  0  0  0  0  0  0  0
   13.2281  -11.1329    4.7836 H   0  0  0  0  0  0  0  0  0  0  0  0
   13.5233  -11.2401    9.4976 H   0  0  0  0  0  0  0  0  0  0  0  0
   16.2308  -13.5397    9.6443 H   0  0  0  0  0  0  0  0  0  0  0  0
   15.4264  -12.1975   10.1113 H   0  0  0  0  0  0  0  0  0  0  0  0
   11.6131  -10.2721    8.4046 H   0  0  0  0  0  0  0  0  0  0  0  0
   17.7378  -11.9913   10.6453 H   0  0  0  0  0  0  0  0  0  0  0  0
   18.1204  -12.2081    9.0726 H   0  0  0  0  0  0  0  0  0  0  0  0
   17.3159  -10.8659    9.5396 H   0  0  0  0  0  0  0  0  0  0  0  0
  1  2  1  0  0  0  0
  2  3  2  0  0  0  0
  2  4  1  0  0  0  0
  3  5  1  0  0  0  0
  3  6  1  0  0  0  0
  4  7  2  0  0  0  0
  6  8  2  0  0  0  0
  7  9  1  0  0  0  0
  8 10  1  0  0  0  0
  9 11  1  0  0  0  0
 10 12  1  0  0  0  0
 12 13  1  0  0  0  0
 13 14  2  0  0  0  0
 13 15  1  0  0  0  0
 15 16  1  0  0  0  0
 16 17  1  0  0  0  0
 16 18  2  0  0  0  0
 17 19  2  0  0  0  0
 17 20  1  0  0  0  0
 18 21  1  0  0  0  0
 19 22  1  0  0  0  0
 20 23  2  0  0  0  0
 21 24  1  0  0  0  0
 22 25  2  0  0  0  0
 24 26  1  0  0  0  0
  7  8  1  0  0  0  0
 19 21  1  0  0  0  0
 23 25  1  0  0  0  0
  4 27  1  0  0  0  0
  6 28  1  0  0  0  0
 10 29  1  0  0  0  0
 10 30  1  0  0  0  0
 11 31  1  0  0  0  0
 11 32  1  0  0  0  0
 11 33  1  0  0  0  0
 12 34  1  0  0  0  0
 15 35  1  0  0  0  0
 15 36  1  0  0  0  0
 18 37  1  0  0  0  0
 20 38  1  0  0  0  0
 22 39  1  0  0  0  0
 24 40  1  0  0  0  0
 24 41  1  0  0  0  0
 25 42  1  0  0  0  0
 26 43  1  0  0  0  0
 26 44  1  0  0  0  0
 26 45  1  0  0  0  0
M  END
> <BIOSOLVEIT.HYDE_ESTIMATED_AFFINITY_LOWER_BOUNDARY [nM]>
31331942.474840

> <BIOSOLVEIT.HYDE_ESTIMATED_AFFINITY_UPPER_BOUNDARY [nM]>
3113013733.980132

> <BIOSOLVEIT.HYDE_LIGAND_EFFICIENCY range: ++, +, 0, -, -->
--

> <BIOSOLVEIT.HYDE_LIGAND_LIPOPHILIC_EFFICIENCY range: ++, +, 0, -, -->
--

> <BIOSOLVEIT.INTER_CLASH range: red, yellow, green>
green

> <BIOSOLVEIT.INTRA_CLASH range: red, yellow, green>
green

> <BIOSOLVEIT.LOGP>
4.2305

> <BIOSOLVEIT.MOLECULAR WEIGHT>
392.284

> <BIOSOLVEIT.MOLECULE_CHECKSUM>
LTIuODg0OTI7MC4xMTA5NTg=

> <BIOSOLVEIT.TORSION_QUALITY range: red, yellow, green, not rotatable>
yellow

> <BIOSOLVEIT.TPSA>
56.15

> <BIOSOLVEIT.SEESAR_FAVORITE>
favorite

> <smc_score>
0.813

> <QED_score>
0.683

> <distance>
0.652

> <SimilarityPheSA_1>
0.736

> <Smiles>
CCn1cc(CC(=O)NCc2cc(Cl)c(Cl)cc2OC)c2cnccc21

> <Similarity_SkelSpheres>
0.648

> <Cluster No>
171.0

> <QueryID>
MIC-UNK-91acba05-6

> <SimilarityPheSA>
0.7362

> <Postera series>
3-aminopyridine-like

> <PDB_code>
Mpro-x12710, Mpro-P0033

> <Approach>
DGM_exploratory_RL

> <ID>
20210628_422

> <SimilarityPheSA_2>
0.776

> <OPTIBRIUM.logD>
3.90839

> <OPTIBRIUM.BBB category>
-

> <OPTIBRIUM.logP>
3.90839

> <OPTIBRIUM.P-gp category>
no

> <OPTIBRIUM.logS>
0.770461

> <OPTIBRIUM.HIA category>
+

> <OPTIBRIUM.PPB90 category>
high

> <OPTIBRIUM.2D6 affinity category>
medium

> <OPTIBRIUM.hERG pIC50>
4.94539

> <OPTIBRIUM.2C9 pKi>
5.39998

> <OPTIBRIUM.BBB log([brain]:[blood])>
-0.360025

> <OPTIBRIUM.logS @ pH7.4>
0.770461

$$$$
Compound 1152_1_05
haSeeSAR  07122114523D 1   1.00000     0.00000     0
SeeSAR 11.0.2 hazemaj
 45 47  0  0  0  0            999 V2000
   22.3033   -8.9069    8.7868 Cl  0  0  0  0  0  0  0  0  0  0  0  0
   21.4542   -9.3422    7.2844 C   0  0  0  0  0  0  0  0  0  0  0  0
   20.6391  -10.4681    7.2490 C   0  0  0  0  0  0  0  0  0  0  0  0
   21.6121   -8.5500    6.1520 C   0  0  0  0  0  0  0  0  0  0  0  0
   20.4506  -11.4685    8.7091 Cl  0  0  0  0  0  0  0  0  0  0  0  0
   19.9689  -10.8206    6.0824 C   0  0  0  0  0  0  0  0  0  0  0  0
   20.9429   -8.9006    4.9843 C   0  0  0  0  0  0  0  0  0  0  0  0
   20.1277  -10.0269    4.9512 C   0  0  0  0  0  0  0  0  0  0  0  0
   21.0956   -8.1332    3.8844 O   0  0  0  0  0  0  0  0  0  0  0  0
   19.3960  -10.4088    3.6746 C   0  0  0  0  0  0  0  0  0  0  0  0
   20.4292   -6.8827    3.7931 C   0  0  0  0  0  0  0  0  0  0  0  0
   18.4340  -11.4822    3.9637 N   0  0  0  0  0  0  0  0  0  0  0  0
   17.1650  -11.1884    4.1953 C   0  0  0  0  0  0  0  0  0  0  0  0
   16.7898  -10.0163    4.1687 O   0  0  0  0  0  0  0  0  0  0  0  0
   16.1704  -12.2982    4.4942 C   0  0  0  0  0  0  0  0  0  0  0  0
   15.7139  -12.1939    5.9417 C   0  0  0  0  0  0  0  0  0  0  0  0
   14.4982  -11.6244    6.3841 C   0  0  0  0  0  0  0  0  0  0  0  0
   16.4200  -12.6391    7.0191 C   0  0  0  0  0  0  0  0  0  0  0  0
   14.5037  -11.7444    7.7508 C   0  0  0  0  0  0  0  0  0  0  0  0
   13.3822  -11.0196    5.8107 C   0  0  0  0  0  0  0  0  0  0  0  0
   15.6678  -12.3553    8.1192 N   0  0  0  0  0  0  0  0  0  0  0  0
   13.4429  -11.2814    8.5220 C   0  0  0  0  0  0  0  0  0  0  0  0
   12.3593  -10.5728    6.5557 N   0  0  0  0  0  0  0  0  0  0  0  0
   16.0636  -12.6704    9.4998 C   0  0  0  0  0  0  0  0  0  0  0  0
   12.3558  -10.6848    7.8924 C   0  0  0  0  0  0  0  0  0  0  0  0
   17.2811  -11.8434    9.8790 C   0  0  0  0  0  0  0  0  0  0  0  0
   22.1982   -7.7401    6.1773 H   0  0  0  0  0  0  0  0  0  0  0  0
   19.3829  -11.6305    6.0573 H   0  0  0  0  0  0  0  0  0  0  0  0
   20.0562  -10.7273    2.9945 H   0  0  0  0  0  0  0  0  0  0  0  0
   18.9088   -9.6115    3.3183 H   0  0  0  0  0  0  0  0  0  0  0  0
   20.6514   -6.4495    2.9196 H   0  0  0  0  0  0  0  0  0  0  0  0
   19.4413   -7.0263    3.8522 H   0  0  0  0  0  0  0  0  0  0  0  0
   20.7254   -6.2914    4.5433 H   0  0  0  0  0  0  0  0  0  0  0  0
   18.7388  -12.4343    3.9853 H   0  0  0  0  0  0  0  0  0  0  0  0
   16.6065  -13.1857    4.3453 H   0  0  0  0  0  0  0  0  0  0  0  0
   15.3798  -12.2094    3.8882 H   0  0  0  0  0  0  0  0  0  0  0  0
   17.3143  -13.0863    7.0051 H   0  0  0  0  0  0  0  0  0  0  0  0
   13.3421  -10.9157    4.8169 H   0  0  0  0  0  0  0  0  0  0  0  0
   13.4615  -11.3764    9.5173 H   0  0  0  0  0  0  0  0  0  0  0  0
   16.2865  -13.6428    9.5690 H   0  0  0  0  0  0  0  0  0  0  0  0
   15.3089  -12.4565   10.1200 H   0  0  0  0  0  0  0  0  0  0  0  0
   11.5831  -10.3444    8.4281 H   0  0  0  0  0  0  0  0  0  0  0  0
   17.5504  -12.0577   10.8180 H   0  0  0  0  0  0  0  0  0  0  0  0
   18.0359  -12.0574    9.2588 H   0  0  0  0  0  0  0  0  0  0  0  0
   17.0583  -10.8709    9.8098 H   0  0  0  0  0  0  0  0  0  0  0  0
  1  2  1  0  0  0  0
  2  3  2  0  0  0  0
  2  4  1  0  0  0  0
  3  5  1  0  0  0  0
  3  6  1  0  0  0  0
  4  7  2  0  0  0  0
  6  8  2  0  0  0  0
  7  9  1  0  0  0  0
  8 10  1  0  0  0  0
  9 11  1  0  0  0  0
 10 12  1  0  0  0  0
 12 13  1  0  0  0  0
 13 14  2  0  0  0  0
 13 15  1  0  0  0  0
 15 16  1  0  0  0  0
 16 17  1  0  0  0  0
 16 18  2  0  0  0  0
 17 19  2  0  0  0  0
 17 20  1  0  0  0  0
 18 21  1  0  0  0  0
 19 22  1  0  0  0  0
 20 23  2  0  0  0  0
 21 24  1  0  0  0  0
 22 25  2  0  0  0  0
 24 26  1  0  0  0  0
  7  8  1  0  0  0  0
 19 21  1  0  0  0  0
 23 25  1  0  0  0  0
  4 27  1  0  0  0  0
  6 28  1  0  0  0  0
 10 29  1  0  0  0  0
 10 30  1  0  0  0  0
 11 31  1  0  0  0  0
 11 32  1  0  0  0  0
 11 33  1  0  0  0  0
 12 34  1  0  0  0  0
 15 35  1  0  0  0  0
 15 36  1  0  0  0  0
 18 37  1  0  0  0  0
 20 38  1  0  0  0  0
 22 39  1  0  0  0  0
 24 40  1  0  0  0  0
 24 41  1  0  0  0  0
 25 42  1  0  0  0  0
 26 43  1  0  0  0  0
 26 44  1  0  0  0  0
 26 45  1  0  0  0  0
M  END
> <BIOSOLVEIT.HYDE_ESTIMATED_AFFINITY_LOWER_BOUNDARY [nM]>
10132146.766784

> <BIOSOLVEIT.HYDE_ESTIMATED_AFFINITY_UPPER_BOUNDARY [nM]>
1006688687.272682

> <BIOSOLVEIT.HYDE_LIGAND_EFFICIENCY range: ++, +, 0, -, -->
--

> <BIOSOLVEIT.HYDE_LIGAND_LIPOPHILIC_EFFICIENCY range: ++, +, 0, -, -->
--

> <BIOSOLVEIT.INTER_CLASH range: red, yellow, green>
green

> <BIOSOLVEIT.INTRA_CLASH range: red, yellow, green>
green

> <BIOSOLVEIT.LOGP>
4.2305

> <BIOSOLVEIT.MOLECULAR WEIGHT>
392.284

> <BIOSOLVEIT.MOLECULE_CHECKSUM>
LTUuNjgzNDc7MC4yMTg1OTU=

> <BIOSOLVEIT.TORSION_QUALITY range: red, yellow, green, not rotatable>
yellow

> <BIOSOLVEIT.TPSA>
56.15

> <BIOSOLVEIT.SEESAR_FAVORITE>
favorite

> <smc_score>
0.813

> <QED_score>
0.683

> <distance>
0.652

> <SimilarityPheSA_1>
0.736

> <Smiles>
CCn1cc(CC(=O)NCc2cc(Cl)c(Cl)cc2OC)c2cnccc21

> <Similarity_SkelSpheres>
0.648

> <Cluster No>
171.0

> <QueryID>
MIC-UNK-91acba05-6

> <SimilarityPheSA>
0.7362

> <Postera series>
3-aminopyridine-like

> <PDB_code>
Mpro-x12710, Mpro-P0033

> <Approach>
DGM_exploratory_RL

> <ID>
20210628_422

> <SimilarityPheSA_2>
0.776

> <OPTIBRIUM.logD>
3.90839

> <OPTIBRIUM.BBB category>
-

> <OPTIBRIUM.logP>
3.90839

> <OPTIBRIUM.P-gp category>
no

> <OPTIBRIUM.logS>
0.770461

> <OPTIBRIUM.HIA category>
+

> <OPTIBRIUM.PPB90 category>
high

> <OPTIBRIUM.2D6 affinity category>
medium

> <OPTIBRIUM.hERG pIC50>
4.94539

> <OPTIBRIUM.2C9 pKi>
5.39998

> <OPTIBRIUM.BBB log([brain]:[blood])>
-0.360025

> <OPTIBRIUM.logS @ pH7.4>
0.770461

$$$$
Compound 1152_1_06
haSeeSAR  07122114523D 1   1.00000     0.00000     0
SeeSAR 11.0.2 hazemaj
 45 47  0  0  0  0            999 V2000
   23.6075  -11.0581    7.7514 Cl  0  0  0  0  0  0  0  0  0  0  0  0
   22.3842  -10.9286    6.4651 C   0  0  0  0  0  0  0  0  0  0  0  0
   21.1125  -11.4556    6.6611 C   0  0  0  0  0  0  0  0  0  0  0  0
   22.7097  -10.2984    5.2686 C   0  0  0  0  0  0  0  0  0  0  0  0
   20.7162  -12.2582    8.1997 Cl  0  0  0  0  0  0  0  0  0  0  0  0
   20.1460  -11.3617    5.6654 C   0  0  0  0  0  0  0  0  0  0  0  0
   21.7448  -10.2035    4.2713 C   0  0  0  0  0  0  0  0  0  0  0  0
   20.4733  -10.7309    4.4697 C   0  0  0  0  0  0  0  0  0  0  0  0
   22.0594   -9.5928    3.1095 O   0  0  0  0  0  0  0  0  0  0  0  0
   19.4190  -10.6258    3.3795 C   0  0  0  0  0  0  0  0  0  0  0  0
   23.3748   -9.1012    2.8992 C   0  0  0  0  0  0  0  0  0  0  0  0
   18.3398  -11.5873    3.6472 N   0  0  0  0  0  0  0  0  0  0  0  0
   17.1440  -11.1546    4.0123 C   0  0  0  0  0  0  0  0  0  0  0  0
   16.9352   -9.9470    4.1277 O   0  0  0  0  0  0  0  0  0  0  0  0
   16.0280  -12.1488    4.2891 C   0  0  0  0  0  0  0  0  0  0  0  0
   15.6492  -12.0889    5.7612 C   0  0  0  0  0  0  0  0  0  0  0  0
   14.4384  -11.5773    6.2812 C   0  0  0  0  0  0  0  0  0  0  0  0
   16.4311  -12.5243    6.7892 C   0  0  0  0  0  0  0  0  0  0  0  0
   14.5248  -11.7214    7.6428 C   0  0  0  0  0  0  0  0  0  0  0  0
   13.2691  -11.0082    5.7822 C   0  0  0  0  0  0  0  0  0  0  0  0
   15.7308  -12.2911    7.9344 N   0  0  0  0  0  0  0  0  0  0  0  0
   13.4910  -11.3158    8.4803 C   0  0  0  0  0  0  0  0  0  0  0  0
   12.2725  -10.6167    6.5911 N   0  0  0  0  0  0  0  0  0  0  0  0
   16.2151  -12.6144    9.2845 C   0  0  0  0  0  0  0  0  0  0  0  0
   12.3478  -10.7525    7.9234 C   0  0  0  0  0  0  0  0  0  0  0  0
   17.4342  -11.7643    9.6025 C   0  0  0  0  0  0  0  0  0  0  0  0
   23.6242   -9.9194    5.1273 H   0  0  0  0  0  0  0  0  0  0  0  0
   19.2317  -11.7411    5.8066 H   0  0  0  0  0  0  0  0  0  0  0  0
   19.8347  -10.8295    2.4930 H   0  0  0  0  0  0  0  0  0  0  0  0
   19.0441   -9.6988    3.3667 H   0  0  0  0  0  0  0  0  0  0  0  0
   23.4331   -8.6818    1.9933 H   0  0  0  0  0  0  0  0  0  0  0  0
   23.5910   -8.4185    3.5972 H   0  0  0  0  0  0  0  0  0  0  0  0
   24.0268   -9.8572    2.9591 H   0  0  0  0  0  0  0  0  0  0  0  0
   18.5095  -12.5683    3.5534 H   0  0  0  0  0  0  0  0  0  0  0  0
   16.3398  -13.0715    4.0624 H   0  0  0  0  0  0  0  0  0  0  0  0
   15.2311  -11.9195    3.7302 H   0  0  0  0  0  0  0  0  0  0  0  0
   17.3403  -12.9345    6.7170 H   0  0  0  0  0  0  0  0  0  0  0  0
   13.1696  -10.8883    4.7944 H   0  0  0  0  0  0  0  0  0  0  0  0
   13.5688  -11.4277    9.4710 H   0  0  0  0  0  0  0  0  0  0  0  0
   16.4633  -13.5821    9.3268 H   0  0  0  0  0  0  0  0  0  0  0  0
   15.4941  -12.4258    9.9512 H   0  0  0  0  0  0  0  0  0  0  0  0
   11.5932  -10.4534    8.5076 H   0  0  0  0  0  0  0  0  0  0  0  0
   17.7636  -11.9841   10.5208 H   0  0  0  0  0  0  0  0  0  0  0  0
   18.1553  -11.9528    8.9358 H   0  0  0  0  0  0  0  0  0  0  0  0
   17.1861  -10.7964    9.5604 H   0  0  0  0  0  0  0  0  0  0  0  0
  1  2  1  0  0  0  0
  2  3  2  0  0  0  0
  2  4  1  0  0  0  0
  3  5  1  0  0  0  0
  3  6  1  0  0  0  0
  4  7  2  0  0  0  0
  6  8  2  0  0  0  0
  7  9  1  0  0  0  0
  8 10  1  0  0  0  0
  9 11  1  0  0  0  0
 10 12  1  0  0  0  0
 12 13  1  0  0  0  0
 13 14  2  0  0  0  0
 13 15  1  0  0  0  0
 15 16  1  0  0  0  0
 16 17  1  0  0  0  0
 16 18  2  0  0  0  0
 17 19  2  0  0  0  0
 17 20  1  0  0  0  0
 18 21  1  0  0  0  0
 19 22  1  0  0  0  0
 20 23  2  0  0  0  0
 21 24  1  0  0  0  0
 22 25  2  0  0  0  0
 24 26  1  0  0  0  0
  7  8  1  0  0  0  0
 19 21  1  0  0  0  0
 23 25  1  0  0  0  0
  4 27  1  0  0  0  0
  6 28  1  0  0  0  0
 10 29  1  0  0  0  0
 10 30  1  0  0  0  0
 11 31  1  0  0  0  0
 11 32  1  0  0  0  0
 11 33  1  0  0  0  0
 12 34  1  0  0  0  0
 15 35  1  0  0  0  0
 15 36  1  0  0  0  0
 18 37  1  0  0  0  0
 20 38  1  0  0  0  0
 22 39  1  0  0  0  0
 24 40  1  0  0  0  0
 24 41  1  0  0  0  0
 25 42  1  0  0  0  0
 26 43  1  0  0  0  0
 26 44  1  0  0  0  0
 26 45  1  0  0  0  0
M  END
> <BIOSOLVEIT.HYDE_ESTIMATED_AFFINITY_LOWER_BOUNDARY [nM]>
1092204.589008

> <BIOSOLVEIT.HYDE_ESTIMATED_AFFINITY_UPPER_BOUNDARY [nM]>
108516983.542515

> <BIOSOLVEIT.HYDE_LIGAND_EFFICIENCY range: ++, +, 0, -, -->
--

> <BIOSOLVEIT.HYDE_LIGAND_LIPOPHILIC_EFFICIENCY range: ++, +, 0, -, -->
--

> <BIOSOLVEIT.INTER_CLASH range: red, yellow, green>
green

> <BIOSOLVEIT.INTRA_CLASH range: red, yellow, green>
green

> <BIOSOLVEIT.LOGP>
4.2305

> <BIOSOLVEIT.MOLECULAR WEIGHT>
392.284

> <BIOSOLVEIT.MOLECULE_CHECKSUM>
LTExLjIwNTQ7MC40MzA5NzY=

> <BIOSOLVEIT.TORSION_QUALITY range: red, yellow, green, not rotatable>
green

> <BIOSOLVEIT.TPSA>
56.15

> <BIOSOLVEIT.SEESAR_FAVORITE>
favorite

> <smc_score>
0.813

> <QED_score>
0.683

> <distance>
0.652

> <SimilarityPheSA_1>
0.736

> <Smiles>
CCn1cc(CC(=O)NCc2cc(Cl)c(Cl)cc2OC)c2cnccc21

> <Similarity_SkelSpheres>
0.648

> <Cluster No>
171.0

> <QueryID>
MIC-UNK-91acba05-6

> <SimilarityPheSA>
0.7362

> <Postera series>
3-aminopyridine-like

> <PDB_code>
Mpro-x12710, Mpro-P0033

> <Approach>
DGM_exploratory_RL

> <ID>
20210628_422

> <SimilarityPheSA_2>
0.776

> <OPTIBRIUM.logD>
3.90839

> <OPTIBRIUM.BBB category>
-

> <OPTIBRIUM.logP>
3.90839

> <OPTIBRIUM.P-gp category>
no

> <OPTIBRIUM.logS>
0.770461

> <OPTIBRIUM.HIA category>
+

> <OPTIBRIUM.PPB90 category>
high

> <OPTIBRIUM.2D6 affinity category>
medium

> <OPTIBRIUM.hERG pIC50>
4.94539

> <OPTIBRIUM.2C9 pKi>
5.39998

> <OPTIBRIUM.BBB log([brain]:[blood])>
-0.360025

> <OPTIBRIUM.logS @ pH7.4>
0.770461

$$$$
Compound 1152_1_07
haSeeSAR  07122114523D 1   1.00000     0.00000     0
SeeSAR 11.0.2 hazemaj
 45 47  0  0  0  0            999 V2000
   24.4869   -9.9482    5.8426 Cl  0  0  0  0  0  0  0  0  0  0  0  0
   22.8637  -10.0054    5.1149 C   0  0  0  0  0  0  0  0  0  0  0  0
   22.6909   -9.6701    3.7766 C   0  0  0  0  0  0  0  0  0  0  0  0
   21.7754  -10.3870    5.8925 C   0  0  0  0  0  0  0  0  0  0  0  0
   24.0968   -9.1844    2.7989 Cl  0  0  0  0  0  0  0  0  0  0  0  0
   21.4287   -9.7105    3.1938 C   0  0  0  0  0  0  0  0  0  0  0  0
   20.5122  -10.4280    5.3119 C   0  0  0  0  0  0  0  0  0  0  0  0
   20.3416  -10.0927    3.9730 C   0  0  0  0  0  0  0  0  0  0  0  0
   19.4550  -10.7974    6.0655 O   0  0  0  0  0  0  0  0  0  0  0  0
   18.9607  -10.1387    3.3391 C   0  0  0  0  0  0  0  0  0  0  0  0
   19.6404  -11.1331    7.4327 C   0  0  0  0  0  0  0  0  0  0  0  0
   18.2597  -11.3534    3.7794 N   0  0  0  0  0  0  0  0  0  0  0  0
   17.0155  -11.2752    4.2224 C   0  0  0  0  0  0  0  0  0  0  0  0
   16.4450  -10.1853    4.2659 O   0  0  0  0  0  0  0  0  0  0  0  0
   16.2905  -12.5313    4.6777 C   0  0  0  0  0  0  0  0  0  0  0  0
   15.7781  -12.3349    6.0965 C   0  0  0  0  0  0  0  0  0  0  0  0
   14.5634  -11.7075    6.4554 C   0  0  0  0  0  0  0  0  0  0  0  0
   16.4248  -12.7408    7.2256 C   0  0  0  0  0  0  0  0  0  0  0  0
   14.5086  -11.7528    7.8254 C   0  0  0  0  0  0  0  0  0  0  0  0
   13.4913  -11.1032    5.8030 C   0  0  0  0  0  0  0  0  0  0  0  0
   15.6369  -12.3759    8.2756 N   0  0  0  0  0  0  0  0  0  0  0  0
   13.4316  -11.2181    8.5245 C   0  0  0  0  0  0  0  0  0  0  0  0
   12.4528  -10.5871    6.4785 N   0  0  0  0  0  0  0  0  0  0  0  0
   15.9653  -12.6263    9.6868 C   0  0  0  0  0  0  0  0  0  0  0  0
   12.3906  -10.6258    7.8177 C   0  0  0  0  0  0  0  0  0  0  0  0
   17.2828  -11.9495   10.0282 C   0  0  0  0  0  0  0  0  0  0  0  0
   21.8995  -10.6282    6.8550 H   0  0  0  0  0  0  0  0  0  0  0  0
   21.3048   -9.4690    2.2314 H   0  0  0  0  0  0  0  0  0  0  0  0
   19.0512  -10.1484    2.3432 H   0  0  0  0  0  0  0  0  0  0  0  0
   18.4387   -9.3328    3.6185 H   0  0  0  0  0  0  0  0  0  0  0  0
   18.7602  -11.3812    7.8374 H   0  0  0  0  0  0  0  0  0  0  0  0
   20.2698  -11.9070    7.5036 H   0  0  0  0  0  0  0  0  0  0  0  0
   20.0218  -10.3476    7.9200 H   0  0  0  0  0  0  0  0  0  0  0  0
   18.7231  -12.2388    3.7439 H   0  0  0  0  0  0  0  0  0  0  0  0
   16.9214  -13.3069    4.6555 H   0  0  0  0  0  0  0  0  0  0  0  0
   15.5196  -12.7111    4.0668 H   0  0  0  0  0  0  0  0  0  0  0  0
   17.3047  -13.2135    7.2739 H   0  0  0  0  0  0  0  0  0  0  0  0
   13.4956  -11.0525    4.8043 H   0  0  0  0  0  0  0  0  0  0  0  0
   13.4061  -11.2591    9.5234 H   0  0  0  0  0  0  0  0  0  0  0  0
   16.0467  -13.6110    9.8404 H   0  0  0  0  0  0  0  0  0  0  0  0
   15.2405  -12.2570   10.2683 H   0  0  0  0  0  0  0  0  0  0  0  0
   11.6072  -10.2345    8.3009 H   0  0  0  0  0  0  0  0  0  0  0  0
   17.5062  -12.1198   10.9879 H   0  0  0  0  0  0  0  0  0  0  0  0
   18.0077  -12.3188    9.4466 H   0  0  0  0  0  0  0  0  0  0  0  0
   17.2014  -10.9648    9.8746 H   0  0  0  0  0  0  0  0  0  0  0  0
  1  2  1  0  0  0  0
  2  3  2  0  0  0  0
  2  4  1  0  0  0  0
  3  5  1  0  0  0  0
  3  6  1  0  0  0  0
  4  7  2  0  0  0  0
  6  8  2  0  0  0  0
  7  9  1  0  0  0  0
  8 10  1  0  0  0  0
  9 11  1  0  0  0  0
 10 12  1  0  0  0  0
 12 13  1  0  0  0  0
 13 14  2  0  0  0  0
 13 15  1  0  0  0  0
 15 16  1  0  0  0  0
 16 17  1  0  0  0  0
 16 18  2  0  0  0  0
 17 19  2  0  0  0  0
 17 20  1  0  0  0  0
 18 21  1  0  0  0  0
 19 22  1  0  0  0  0
 20 23  2  0  0  0  0
 21 24  1  0  0  0  0
 22 25  2  0  0  0  0
 24 26  1  0  0  0  0
  7  8  1  0  0  0  0
 19 21  1  0  0  0  0
 23 25  1  0  0  0  0
  4 27  1  0  0  0  0
  6 28  1  0  0  0  0
 10 29  1  0  0  0  0
 10 30  1  0  0  0  0
 11 31  1  0  0  0  0
 11 32  1  0  0  0  0
 11 33  1  0  0  0  0
 12 34  1  0  0  0  0
 15 35  1  0  0  0  0
 15 36  1  0  0  0  0
 18 37  1  0  0  0  0
 20 38  1  0  0  0  0
 22 39  1  0  0  0  0
 24 40  1  0  0  0  0
 24 41  1  0  0  0  0
 25 42  1  0  0  0  0
 26 43  1  0  0  0  0
 26 44  1  0  0  0  0
 26 45  1  0  0  0  0
M  END
> <BIOSOLVEIT.HYDE_ESTIMATED_AFFINITY_LOWER_BOUNDARY [nM]>
2733312.082094

> <BIOSOLVEIT.HYDE_ESTIMATED_AFFINITY_UPPER_BOUNDARY [nM]>
271570715.975990

> <BIOSOLVEIT.HYDE_LIGAND_EFFICIENCY range: ++, +, 0, -, -->
--

> <BIOSOLVEIT.HYDE_LIGAND_LIPOPHILIC_EFFICIENCY range: ++, +, 0, -, -->
--

> <BIOSOLVEIT.INTER_CLASH range: red, yellow, green>
green

> <BIOSOLVEIT.INTRA_CLASH range: red, yellow, green>
green

> <BIOSOLVEIT.LOGP>
4.2305

> <BIOSOLVEIT.MOLECULAR WEIGHT>
392.284

> <BIOSOLVEIT.MOLECULE_CHECKSUM>
LTguOTMxNDswLjM0MzUxNQ==

> <BIOSOLVEIT.TORSION_QUALITY range: red, yellow, green, not rotatable>
green

> <BIOSOLVEIT.TPSA>
56.15

> <BIOSOLVEIT.SEESAR_FAVORITE>
favorite

> <smc_score>
0.813

> <QED_score>
0.683

> <distance>
0.652

> <SimilarityPheSA_1>
0.736

> <Smiles>
CCn1cc(CC(=O)NCc2cc(Cl)c(Cl)cc2OC)c2cnccc21

> <Similarity_SkelSpheres>
0.648

> <Cluster No>
171.0

> <QueryID>
MIC-UNK-91acba05-6

> <SimilarityPheSA>
0.7362

> <Postera series>
3-aminopyridine-like

> <PDB_code>
Mpro-x12710, Mpro-P0033

> <Approach>
DGM_exploratory_RL

> <ID>
20210628_422

> <SimilarityPheSA_2>
0.776

> <OPTIBRIUM.logD>
3.90839

> <OPTIBRIUM.BBB category>
-

> <OPTIBRIUM.logP>
3.90839

> <OPTIBRIUM.P-gp category>
no

> <OPTIBRIUM.logS>
0.770461

> <OPTIBRIUM.HIA category>
+

> <OPTIBRIUM.PPB90 category>
high

> <OPTIBRIUM.2D6 affinity category>
medium

> <OPTIBRIUM.hERG pIC50>
4.94539

> <OPTIBRIUM.2C9 pKi>
5.39998

> <OPTIBRIUM.BBB log([brain]:[blood])>
-0.360025

> <OPTIBRIUM.logS @ pH7.4>
0.770461

$$$$
Compound 1152_1_09
haSeeSAR  07122114523D 1   1.00000     0.00000     0
SeeSAR 11.0.2 hazemaj
 45 47  0  0  0  0            999 V2000
   23.9560  -11.6986    8.2267 Cl  0  0  0  0  0  0  0  0  0  0  0  0
   22.6806  -11.3847    7.0256 C   0  0  0  0  0  0  0  0  0  0  0  0
   22.3577  -10.0766    6.6819 C   0  0  0  0  0  0  0  0  0  0  0  0
   22.0136  -12.4537    6.4367 C   0  0  0  0  0  0  0  0  0  0  0  0
   23.2233   -8.7226    7.4473 Cl  0  0  0  0  0  0  0  0  0  0  0  0
   21.3637   -9.8157    5.7447 C   0  0  0  0  0  0  0  0  0  0  0  0
   21.0192  -12.1952    5.4993 C   0  0  0  0  0  0  0  0  0  0  0  0
   20.6981  -10.8861    5.1566 C   0  0  0  0  0  0  0  0  0  0  0  0
   20.3705  -13.2316    4.9275 O   0  0  0  0  0  0  0  0  0  0  0  0
   19.6116  -10.6045    4.1313 C   0  0  0  0  0  0  0  0  0  0  0  0
   20.7286  -14.5646    5.2614 C   0  0  0  0  0  0  0  0  0  0  0  0
   18.5003  -11.5474    4.3235 N   0  0  0  0  0  0  0  0  0  0  0  0
   17.2526  -11.1073    4.3268 C   0  0  0  0  0  0  0  0  0  0  0  0
   17.0223   -9.9084    4.1687 O   0  0  0  0  0  0  0  0  0  0  0  0
   16.1034  -12.0822    4.5255 C   0  0  0  0  0  0  0  0  0  0  0  0
   15.6489  -12.0412    5.9767 C   0  0  0  0  0  0  0  0  0  0  0  0
   14.4092  -11.5436    6.4390 C   0  0  0  0  0  0  0  0  0  0  0  0
   16.3802  -12.4826    7.0389 C   0  0  0  0  0  0  0  0  0  0  0  0
   14.4266  -11.7023    7.8016 C   0  0  0  0  0  0  0  0  0  0  0  0
   13.2630  -10.9770    5.8866 C   0  0  0  0  0  0  0  0  0  0  0  0
   15.6201  -12.2668    8.1489 N   0  0  0  0  0  0  0  0  0  0  0  0
   13.3481  -11.3129    8.5891 C   0  0  0  0  0  0  0  0  0  0  0  0
   12.2232  -10.6013    6.6473 N   0  0  0  0  0  0  0  0  0  0  0  0
   16.0366  -12.6017    9.5187 C   0  0  0  0  0  0  0  0  0  0  0  0
   12.2309  -10.7514    7.9802 C   0  0  0  0  0  0  0  0  0  0  0  0
   17.3595  -11.9197    9.8270 C   0  0  0  0  0  0  0  0  0  0  0  0
   22.2456  -13.3946    6.6837 H   0  0  0  0  0  0  0  0  0  0  0  0
   21.1316   -8.8748    5.4980 H   0  0  0  0  0  0  0  0  0  0  0  0
   19.9859  -10.7137    3.2104 H   0  0  0  0  0  0  0  0  0  0  0  0
   19.2786   -9.6687    4.2469 H   0  0  0  0  0  0  0  0  0  0  0  0
   20.1523  -15.2024    4.7505 H   0  0  0  0  0  0  0  0  0  0  0  0
   21.6880  -14.7208    5.0266 H   0  0  0  0  0  0  0  0  0  0  0  0
   20.5977  -14.7091    6.2422 H   0  0  0  0  0  0  0  0  0  0  0  0
   18.6873  -12.5213    4.4519 H   0  0  0  0  0  0  0  0  0  0  0  0
   16.4076  -13.0071    4.2975 H   0  0  0  0  0  0  0  0  0  0  0  0
   15.3419  -11.8256    3.9303 H   0  0  0  0  0  0  0  0  0  0  0  0
   17.2948  -12.8857    7.0092 H   0  0  0  0  0  0  0  0  0  0  0  0
   13.2135  -10.8468    4.8963 H   0  0  0  0  0  0  0  0  0  0  0  0
   13.3757  -11.4353    9.5812 H   0  0  0  0  0  0  0  0  0  0  0  0
   16.1450  -13.5925    9.6013 H   0  0  0  0  0  0  0  0  0  0  0  0
   15.3410  -12.2876   10.1648 H   0  0  0  0  0  0  0  0  0  0  0  0
   11.4451  -10.4640    8.5277 H   0  0  0  0  0  0  0  0  0  0  0  0
   17.6428  -12.1475   10.7586 H   0  0  0  0  0  0  0  0  0  0  0  0
   18.0551  -12.2339    9.1808 H   0  0  0  0  0  0  0  0  0  0  0  0
   17.2511  -10.9291    9.7444 H   0  0  0  0  0  0  0  0  0  0  0  0
  1  2  1  0  0  0  0
  2  3  2  0  0  0  0
  2  4  1  0  0  0  0
  3  5  1  0  0  0  0
  3  6  1  0  0  0  0
  4  7  2  0  0  0  0
  6  8  2  0  0  0  0
  7  9  1  0  0  0  0
  8 10  1  0  0  0  0
  9 11  1  0  0  0  0
 10 12  1  0  0  0  0
 12 13  1  0  0  0  0
 13 14  2  0  0  0  0
 13 15  1  0  0  0  0
 15 16  1  0  0  0  0
 16 17  1  0  0  0  0
 16 18  2  0  0  0  0
 17 19  2  0  0  0  0
 17 20  1  0  0  0  0
 18 21  1  0  0  0  0
 19 22  1  0  0  0  0
 20 23  2  0  0  0  0
 21 24  1  0  0  0  0
 22 25  2  0  0  0  0
 24 26  1  0  0  0  0
  7  8  1  0  0  0  0
 19 21  1  0  0  0  0
 23 25  1  0  0  0  0
  4 27  1  0  0  0  0
  6 28  1  0  0  0  0
 10 29  1  0  0  0  0
 10 30  1  0  0  0  0
 11 31  1  0  0  0  0
 11 32  1  0  0  0  0
 11 33  1  0  0  0  0
 12 34  1  0  0  0  0
 15 35  1  0  0  0  0
 15 36  1  0  0  0  0
 18 37  1  0  0  0  0
 20 38  1  0  0  0  0
 22 39  1  0  0  0  0
 24 40  1  0  0  0  0
 24 41  1  0  0  0  0
 25 42  1  0  0  0  0
 26 43  1  0  0  0  0
 26 44  1  0  0  0  0
 26 45  1  0  0  0  0
M  END
> <BIOSOLVEIT.HYDE_ESTIMATED_AFFINITY_LOWER_BOUNDARY [nM]>
21591999.862137

> <BIOSOLVEIT.HYDE_ESTIMATED_AFFINITY_UPPER_BOUNDARY [nM]>
2145292848.309852

> <BIOSOLVEIT.HYDE_LIGAND_EFFICIENCY range: ++, +, 0, -, -->
--

> <BIOSOLVEIT.HYDE_LIGAND_LIPOPHILIC_EFFICIENCY range: ++, +, 0, -, -->
--

> <BIOSOLVEIT.INTER_CLASH range: red, yellow, green>
green

> <BIOSOLVEIT.INTRA_CLASH range: red, yellow, green>
green

> <BIOSOLVEIT.LOGP>
4.2305

> <BIOSOLVEIT.MOLECULAR WEIGHT>
392.284

> <BIOSOLVEIT.MOLECULE_CHECKSUM>
LTMuODA3ODc7MC4xNDY0NTc=

> <BIOSOLVEIT.TORSION_QUALITY range: red, yellow, green, not rotatable>
yellow

> <BIOSOLVEIT.TPSA>
56.15

> <BIOSOLVEIT.SEESAR_FAVORITE>
favorite

> <smc_score>
0.813

> <QED_score>
0.683

> <distance>
0.652

> <SimilarityPheSA_1>
0.736

> <Smiles>
CCn1cc(CC(=O)NCc2cc(Cl)c(Cl)cc2OC)c2cnccc21

> <Similarity_SkelSpheres>
0.648

> <Cluster No>
171.0

> <QueryID>
MIC-UNK-91acba05-6

> <SimilarityPheSA>
0.7362

> <Postera series>
3-aminopyridine-like

> <PDB_code>
Mpro-x12710, Mpro-P0033

> <Approach>
DGM_exploratory_RL

> <ID>
20210628_422

> <SimilarityPheSA_2>
0.776

> <OPTIBRIUM.logD>
3.90839

> <OPTIBRIUM.BBB category>
-

> <OPTIBRIUM.logP>
3.90839

> <OPTIBRIUM.P-gp category>
no

> <OPTIBRIUM.logS>
0.770461

> <OPTIBRIUM.HIA category>
+

> <OPTIBRIUM.PPB90 category>
high

> <OPTIBRIUM.2D6 affinity category>
medium

> <OPTIBRIUM.hERG pIC50>
4.94539

> <OPTIBRIUM.2C9 pKi>
5.39998

> <OPTIBRIUM.BBB log([brain]:[blood])>
-0.360025

> <OPTIBRIUM.logS @ pH7.4>
0.770461

$$$$
Compound 1152_1_10
haSeeSAR  07122114523D 1   1.00000     0.00000     0
SeeSAR 11.0.2 hazemaj
 45 47  0  0  0  0            999 V2000
   23.6064  -11.0576    7.7511 Cl  0  0  0  0  0  0  0  0  0  0  0  0
   22.3834  -10.9282    6.4647 C   0  0  0  0  0  0  0  0  0  0  0  0
   21.1116  -11.4551    6.6604 C   0  0  0  0  0  0  0  0  0  0  0  0
   22.7092  -10.2982    5.2681 C   0  0  0  0  0  0  0  0  0  0  0  0
   20.7150  -12.2575    8.1990 Cl  0  0  0  0  0  0  0  0  0  0  0  0
   20.1454  -11.3612    5.6645 C   0  0  0  0  0  0  0  0  0  0  0  0
   21.7445  -10.2032    4.2707 C   0  0  0  0  0  0  0  0  0  0  0  0
   20.4730  -10.7305    4.4688 C   0  0  0  0  0  0  0  0  0  0  0  0
   22.0594   -9.5927    3.1088 O   0  0  0  0  0  0  0  0  0  0  0  0
   19.4189  -10.6254    3.3783 C   0  0  0  0  0  0  0  0  0  0  0  0
   23.3750   -9.1016    2.8987 C   0  0  0  0  0  0  0  0  0  0  0  0
   18.3396  -11.5869    3.6460 N   0  0  0  0  0  0  0  0  0  0  0  0
   17.1439  -11.1542    4.0114 C   0  0  0  0  0  0  0  0  0  0  0  0
   16.9353   -9.9466    4.1273 O   0  0  0  0  0  0  0  0  0  0  0  0
   16.0278  -12.1483    4.2881 C   0  0  0  0  0  0  0  0  0  0  0  0
   15.6492  -12.0887    5.7603 C   0  0  0  0  0  0  0  0  0  0  0  0
   14.4385  -11.5772    6.2805 C   0  0  0  0  0  0  0  0  0  0  0  0
   16.4313  -12.5244    6.7881 C   0  0  0  0  0  0  0  0  0  0  0  0
   14.5251  -11.7216    7.6420 C   0  0  0  0  0  0  0  0  0  0  0  0
   13.2692  -11.0080    5.7818 C   0  0  0  0  0  0  0  0  0  0  0  0
   15.7311  -12.2914    7.9334 N   0  0  0  0  0  0  0  0  0  0  0  0
   13.4914  -11.3161    8.4798 C   0  0  0  0  0  0  0  0  0  0  0  0
   12.2727  -10.6166    6.5910 N   0  0  0  0  0  0  0  0  0  0  0  0
   16.2155  -12.6149    9.2834 C   0  0  0  0  0  0  0  0  0  0  0  0
   12.3481  -10.7527    7.9233 C   0  0  0  0  0  0  0  0  0  0  0  0
   17.4338  -11.7637    9.6021 C   0  0  0  0  0  0  0  0  0  0  0  0
   23.6237   -9.9190    5.1270 H   0  0  0  0  0  0  0  0  0  0  0  0
   19.2309  -11.7406    5.8055 H   0  0  0  0  0  0  0  0  0  0  0  0
   19.8347  -10.8293    2.4920 H   0  0  0  0  0  0  0  0  0  0  0  0
   19.0440   -9.6985    3.3653 H   0  0  0  0  0  0  0  0  0  0  0  0
   23.4336   -8.6821    1.9927 H   0  0  0  0  0  0  0  0  0  0  0  0
   23.5915   -8.4190    3.5967 H   0  0  0  0  0  0  0  0  0  0  0  0
   24.0267   -9.8578    2.9585 H   0  0  0  0  0  0  0  0  0  0  0  0
   18.5091  -12.5679    3.5518 H   0  0  0  0  0  0  0  0  0  0  0  0
   16.3394  -13.0710    4.0611 H   0  0  0  0  0  0  0  0  0  0  0  0
   15.2309  -11.9188    3.7294 H   0  0  0  0  0  0  0  0  0  0  0  0
   17.3405  -12.9345    6.7157 H   0  0  0  0  0  0  0  0  0  0  0  0
   13.1695  -10.8878    4.7941 H   0  0  0  0  0  0  0  0  0  0  0  0
   13.5694  -11.4283    9.4704 H   0  0  0  0  0  0  0  0  0  0  0  0
   16.4647  -13.5825    9.3251 H   0  0  0  0  0  0  0  0  0  0  0  0
   15.4942  -12.4275    9.9502 H   0  0  0  0  0  0  0  0  0  0  0  0
   11.5937  -10.4538    8.5075 H   0  0  0  0  0  0  0  0  0  0  0  0
   17.7633  -11.9838   10.5203 H   0  0  0  0  0  0  0  0  0  0  0  0
   18.1550  -11.9512    8.9353 H   0  0  0  0  0  0  0  0  0  0  0  0
   17.1846  -10.7962    9.5604 H   0  0  0  0  0  0  0  0  0  0  0  0
  1  2  1  0  0  0  0
  2  3  2  0  0  0  0
  2  4  1  0  0  0  0
  3  5  1  0  0  0  0
  3  6  1  0  0  0  0
  4  7  2  0  0  0  0
  6  8  2  0  0  0  0
  7  9  1  0  0  0  0
  8 10  1  0  0  0  0
  9 11  1  0  0  0  0
 10 12  1  0  0  0  0
 12 13  1  0  0  0  0
 13 14  2  0  0  0  0
 13 15  1  0  0  0  0
 15 16  1  0  0  0  0
 16 17  1  0  0  0  0
 16 18  2  0  0  0  0
 17 19  2  0  0  0  0
 17 20  1  0  0  0  0
 18 21  1  0  0  0  0
 19 22  1  0  0  0  0
 20 23  2  0  0  0  0
 21 24  1  0  0  0  0
 22 25  2  0  0  0  0
 24 26  1  0  0  0  0
  7  8  1  0  0  0  0
 19 21  1  0  0  0  0
 23 25  1  0  0  0  0
  4 27  1  0  0  0  0
  6 28  1  0  0  0  0
 10 29  1  0  0  0  0
 10 30  1  0  0  0  0
 11 31  1  0  0  0  0
 11 32  1  0  0  0  0
 11 33  1  0  0  0  0
 12 34  1  0  0  0  0
 15 35  1  0  0  0  0
 15 36  1  0  0  0  0
 18 37  1  0  0  0  0
 20 38  1  0  0  0  0
 22 39  1  0  0  0  0
 24 40  1  0  0  0  0
 24 41  1  0  0  0  0
 25 42  1  0  0  0  0
 26 43  1  0  0  0  0
 26 44  1  0  0  0  0
 26 45  1  0  0  0  0
M  END
> <BIOSOLVEIT.HYDE_ESTIMATED_AFFINITY_LOWER_BOUNDARY [nM]>
1092900.393168

> <BIOSOLVEIT.HYDE_ESTIMATED_AFFINITY_UPPER_BOUNDARY [nM]>
108586115.799710

> <BIOSOLVEIT.HYDE_LIGAND_EFFICIENCY range: ++, +, 0, -, -->
--

> <BIOSOLVEIT.HYDE_LIGAND_LIPOPHILIC_EFFICIENCY range: ++, +, 0, -, -->
--

> <BIOSOLVEIT.INTER_CLASH range: red, yellow, green>
green

> <BIOSOLVEIT.INTRA_CLASH range: red, yellow, green>
green

> <BIOSOLVEIT.LOGP>
4.2305

> <BIOSOLVEIT.MOLECULAR WEIGHT>
392.284

> <BIOSOLVEIT.MOLECULE_CHECKSUM>
LTExLjIwMzg7MC40MzA5MTY=

> <BIOSOLVEIT.TORSION_QUALITY range: red, yellow, green, not rotatable>
green

> <BIOSOLVEIT.TPSA>
56.15

> <BIOSOLVEIT.SEESAR_FAVORITE>
favorite

> <smc_score>
0.813

> <QED_score>
0.683

> <distance>
0.652

> <SimilarityPheSA_1>
0.736

> <Smiles>
CCn1cc(CC(=O)NCc2cc(Cl)c(Cl)cc2OC)c2cnccc21

> <Similarity_SkelSpheres>
0.648

> <Cluster No>
171.0

> <QueryID>
MIC-UNK-91acba05-6

> <SimilarityPheSA>
0.7362

> <Postera series>
3-aminopyridine-like

> <PDB_code>
Mpro-x12710, Mpro-P0033

> <Approach>
DGM_exploratory_RL

> <ID>
20210628_422

> <SimilarityPheSA_2>
0.776

> <OPTIBRIUM.logD>
3.90839

> <OPTIBRIUM.BBB category>
-

> <OPTIBRIUM.logP>
3.90839

> <OPTIBRIUM.P-gp category>
no

> <OPTIBRIUM.logS>
0.770461

> <OPTIBRIUM.HIA category>
+

> <OPTIBRIUM.PPB90 category>
high

> <OPTIBRIUM.2D6 affinity category>
medium

> <OPTIBRIUM.hERG pIC50>
4.94539

> <OPTIBRIUM.2C9 pKi>
5.39998

> <OPTIBRIUM.BBB log([brain]:[blood])>
-0.360025

> <OPTIBRIUM.logS @ pH7.4>
0.770461

$$$$
Compound 1213_1_1
haSeeSAR  07122114523D 1   1.00000     0.00000     0
SeeSAR 11.0.2 hazemaj
 43 45  0  0  0  0            999 V2000
   21.9924   -7.5638    4.1794 Cl  0  0  0  0  0  0  0  0  0  0  0  0
   20.9694   -9.0178    4.0996 C   0  0  0  0  0  0  0  0  0  0  0  0
   19.7329   -8.9636    3.4670 C   0  0  0  0  0  0  0  0  0  0  0  0
   21.4170  -10.2024    4.6749 C   0  0  0  0  0  0  0  0  0  0  0  0
   19.1801   -7.4367    2.7385 Cl  0  0  0  0  0  0  0  0  0  0  0  0
   18.9211  -10.0906    3.3976 C   0  0  0  0  0  0  0  0  0  0  0  0
   20.6063  -11.3304    4.6056 C   0  0  0  0  0  0  0  0  0  0  0  0
   19.3698  -11.2741    3.9730 C   0  0  0  0  0  0  0  0  0  0  0  0
   21.0231  -12.4686    5.1497 F   0  0  0  0  0  0  0  0  0  0  0  0
   18.4968  -12.5164    3.9084 C   0  0  0  0  0  0  0  0  0  0  0  0
   17.1744  -12.1587    3.3750 N   0  0  0  0  0  0  0  0  0  0  0  0
   16.2463  -11.6695    4.1810 C   0  0  0  0  0  0  0  0  0  0  0  0
   16.8829  -12.3449    1.9441 C   0  0  0  0  0  0  0  0  0  0  0  0
   16.2262  -10.4658    4.4374 O   0  0  0  0  0  0  0  0  0  0  0  0
   15.2050  -12.5940    4.7904 C   0  0  0  0  0  0  0  0  0  0  0  0
   16.3237  -13.7325    1.6677 C   0  0  0  0  0  0  0  0  0  0  0  0
   18.1618  -12.1351    1.1500 C   0  0  0  0  0  0  0  0  0  0  0  0
   14.2301  -11.7994    5.5524 N   0  0  0  0  0  0  0  0  0  0  0  0
   15.9138  -13.8125    0.2022 C   0  0  0  0  0  0  0  0  0  0  0  0
   18.0156  -12.7956   -0.2134 C   0  0  0  0  0  0  0  0  0  0  0  0
   13.1964  -11.0861    5.0165 C   0  0  0  0  0  0  0  0  0  0  0  0
   14.2121  -11.6630    6.9097 C   0  0  0  0  0  0  0  0  0  0  0  0
   16.6516  -12.9056   -0.6102 O   0  0  0  0  0  0  0  0  0  0  0  0
   12.5473  -10.5175    6.0077 N   0  0  0  0  0  0  0  0  0  0  0  0
   13.1533  -10.8531    7.1910 C   0  0  0  0  0  0  0  0  0  0  0  0
   22.3063  -10.2423    5.1304 H   0  0  0  0  0  0  0  0  0  0  0  0
   18.0316  -10.0505    2.9424 H   0  0  0  0  0  0  0  0  0  0  0  0
   18.3935  -12.8994    4.8263 H   0  0  0  0  0  0  0  0  0  0  0  0
   18.9251  -13.1940    3.3106 H   0  0  0  0  0  0  0  0  0  0  0  0
   16.2098  -11.6623    1.6596 H   0  0  0  0  0  0  0  0  0  0  0  0
   15.6544  -13.2455    5.4015 H   0  0  0  0  0  0  0  0  0  0  0  0
   14.7333  -13.0909    4.0619 H   0  0  0  0  0  0  0  0  0  0  0  0
   15.5267  -13.8959    2.2492 H   0  0  0  0  0  0  0  0  0  0  0  0
   17.0229  -14.4213    1.8594 H   0  0  0  0  0  0  0  0  0  0  0  0
   18.9311  -12.5451    1.6398 H   0  0  0  0  0  0  0  0  0  0  0  0
   18.3256  -11.1558    1.0317 H   0  0  0  0  0  0  0  0  0  0  0  0
   14.9407  -13.5945    0.1271 H   0  0  0  0  0  0  0  0  0  0  0  0
   16.0732  -14.7433   -0.1269 H   0  0  0  0  0  0  0  0  0  0  0  0
   18.4150  -13.7115   -0.1729 H   0  0  0  0  0  0  0  0  0  0  0  0
   18.5059  -12.2480   -0.8916 H   0  0  0  0  0  0  0  0  0  0  0  0
   12.9735  -11.0099    4.0447 H   0  0  0  0  0  0  0  0  0  0  0  0
   14.8466  -12.0737    7.5645 H   0  0  0  0  0  0  0  0  0  0  0  0
   12.8678  -10.5553    8.1019 H   0  0  0  0  0  0  0  0  0  0  0  0
  1  2  1  0  0  0  0
  2  3  2  0  0  0  0
  2  4  1  0  0  0  0
  3  5  1  0  0  0  0
  3  6  1  0  0  0  0
  4  7  2  0  0  0  0
  6  8  2  0  0  0  0
  7  9  1  0  0  0  0
  8 10  1  0  0  0  0
 10 11  1  0  0  0  0
 11 12  1  0  0  0  0
 11 13  1  0  0  0  0
 12 14  2  0  0  0  0
 12 15  1  0  0  0  0
 13 16  1  0  0  0  0
 13 17  1  0  0  0  0
 15 18  1  0  0  0  0
 16 19  1  0  0  0  0
 17 20  1  0  0  0  0
 18 21  1  0  0  0  0
 18 22  1  0  0  0  0
 19 23  1  0  0  0  0
 21 24  2  0  0  0  0
 22 25  2  0  0  0  0
  7  8  1  0  0  0  0
 20 23  1  0  0  0  0
 24 25  1  0  0  0  0
  4 26  1  0  0  0  0
  6 27  1  0  0  0  0
 10 28  1  0  0  0  0
 10 29  1  0  0  0  0
 13 30  1  0  0  0  0
 15 31  1  0  0  0  0
 15 32  1  0  0  0  0
 16 33  1  0  0  0  0
 16 34  1  0  0  0  0
 17 35  1  0  0  0  0
 17 36  1  0  0  0  0
 19 37  1  0  0  0  0
 19 38  1  0  0  0  0
 20 39  1  0  0  0  0
 20 40  1  0  0  0  0
 21 41  1  0  0  0  0
 22 42  1  0  0  0  0
 25 43  1  0  0  0  0
M  END
> <BIOSOLVEIT.HYDE_ESTIMATED_AFFINITY_LOWER_BOUNDARY [nM]>
332953.268070

> <BIOSOLVEIT.HYDE_ESTIMATED_AFFINITY_UPPER_BOUNDARY [nM]>
33080875.758301

> <BIOSOLVEIT.HYDE_LIGAND_EFFICIENCY range: ++, +, 0, -, -->
--

> <BIOSOLVEIT.HYDE_LIGAND_LIPOPHILIC_EFFICIENCY range: ++, +, 0, -, -->
--

> <BIOSOLVEIT.INTER_CLASH range: red, yellow, green>
green

> <BIOSOLVEIT.INTRA_CLASH range: red, yellow, green>
green

> <BIOSOLVEIT.LOGP>
3.5368

> <BIOSOLVEIT.MOLECULAR WEIGHT>
386.252

> <BIOSOLVEIT.MOLECULE_CHECKSUM>
LTE0LjE1MDM7MC41NjYwMTE=

> <BIOSOLVEIT.TORSION_QUALITY range: red, yellow, green, not rotatable>
yellow

> <BIOSOLVEIT.TPSA>
47.36

> <BIOSOLVEIT.SEESAR_FAVORITE>
favorite

> <smc_score>
1.0

> <QED_score>
0.739

> <distance>
0.685

> <SimilarityPheSA_1>
0.645

> <Smiles>
O=C(Cn1ccnc1)N(Cc1cc(Cl)c(Cl)cc1F)C1CCOCC1

> <Similarity_SkelSpheres>
0.583

> <Cluster No>
198.0

> <QueryID>
ALP-POS-87c86d55-1

> <SimilarityPheSA>
0.6449

> <Postera series>
3-aminopyridine-like

> <PDB_code>
Mpro-x12143

> <Approach>
DGM_exploratory_RL

> <ID>
20210628_483

> <SimilarityPheSA_2>
0.668

> <OPTIBRIUM.logD>
3.05718

> <OPTIBRIUM.BBB category>
-

> <OPTIBRIUM.logP>
3.05718

> <OPTIBRIUM.P-gp category>
no

> <OPTIBRIUM.logS>
1.96972

> <OPTIBRIUM.HIA category>
+

> <OPTIBRIUM.PPB90 category>
high

> <OPTIBRIUM.2D6 affinity category>
medium

> <OPTIBRIUM.hERG pIC50>
5.52835

> <OPTIBRIUM.2C9 pKi>
5.04409

> <OPTIBRIUM.BBB log([brain]:[blood])>
-0.295762

> <OPTIBRIUM.logS @ pH7.4>
1.96972

$$$$
Compound 1213_1_2
haSeeSAR  07122114523D 1   1.00000     0.00000     0
SeeSAR 11.0.2 hazemaj
 43 45  0  0  0  0            999 V2000
   21.9766   -7.5490    4.1847 Cl  0  0  0  0  0  0  0  0  0  0  0  0
   20.9593   -9.0066    4.0995 C   0  0  0  0  0  0  0  0  0  0  0  0
   19.7237   -8.9556    3.4650 C   0  0  0  0  0  0  0  0  0  0  0  0
   21.4104  -10.1909    4.6727 C   0  0  0  0  0  0  0  0  0  0  0  0
   19.1664   -7.4290    2.7393 Cl  0  0  0  0  0  0  0  0  0  0  0  0
   18.9163  -10.0854    3.3913 C   0  0  0  0  0  0  0  0  0  0  0  0
   20.6042  -11.3218    4.5992 C   0  0  0  0  0  0  0  0  0  0  0  0
   19.3686  -11.2686    3.9646 C   0  0  0  0  0  0  0  0  0  0  0  0
   21.0243  -12.4598    5.1412 F   0  0  0  0  0  0  0  0  0  0  0  0
   18.5004  -12.5141    3.8953 C   0  0  0  0  0  0  0  0  0  0  0  0
   17.1746  -12.1586    3.3692 N   0  0  0  0  0  0  0  0  0  0  0  0
   16.2507  -11.6690    4.1798 C   0  0  0  0  0  0  0  0  0  0  0  0
   16.8750  -12.3472    1.9402 C   0  0  0  0  0  0  0  0  0  0  0  0
   16.2336  -10.4656    4.4379 O   0  0  0  0  0  0  0  0  0  0  0  0
   15.2106  -12.5927    4.7925 C   0  0  0  0  0  0  0  0  0  0  0  0
   18.1388  -12.0802    1.1334 C   0  0  0  0  0  0  0  0  0  0  0  0
   16.3656  -13.7513    1.6569 C   0  0  0  0  0  0  0  0  0  0  0  0
   14.2351  -11.7968    5.5522 N   0  0  0  0  0  0  0  0  0  0  0  0
   18.0224  -12.7847   -0.2118 C   0  0  0  0  0  0  0  0  0  0  0  0
   15.8801  -13.7664    0.2112 C   0  0  0  0  0  0  0  0  0  0  0  0
   13.2025  -11.0836    5.0141 C   0  0  0  0  0  0  0  0  0  0  0  0
   14.2153  -11.6588    6.9094 C   0  0  0  0  0  0  0  0  0  0  0  0
   16.6628  -12.9134   -0.6262 O   0  0  0  0  0  0  0  0  0  0  0  0
   12.5523  -10.5136    6.0037 N   0  0  0  0  0  0  0  0  0  0  0  0
   13.1564  -10.8481    7.1883 C   0  0  0  0  0  0  0  0  0  0  0  0
   22.2991  -10.2286    5.1296 H   0  0  0  0  0  0  0  0  0  0  0  0
   18.0275  -10.0476    2.9347 H   0  0  0  0  0  0  0  0  0  0  0  0
   18.4021  -12.9033    4.8112 H   0  0  0  0  0  0  0  0  0  0  0  0
   18.9293  -13.1862    3.2917 H   0  0  0  0  0  0  0  0  0  0  0  0
   16.1734  -11.6886    1.6682 H   0  0  0  0  0  0  0  0  0  0  0  0
   15.6611  -13.2418    5.4056 H   0  0  0  0  0  0  0  0  0  0  0  0
   14.7394  -13.0925    4.0658 H   0  0  0  0  0  0  0  0  0  0  0  0
   18.9336  -12.4308    1.6284 H   0  0  0  0  0  0  0  0  0  0  0  0
   18.2434  -11.0961    0.9891 H   0  0  0  0  0  0  0  0  0  0  0  0
   15.6115  -13.9742    2.2747 H   0  0  0  0  0  0  0  0  0  0  0  0
   17.1035  -14.4153    1.7783 H   0  0  0  0  0  0  0  0  0  0  0  0
   18.4254  -13.6967   -0.1356 H   0  0  0  0  0  0  0  0  0  0  0  0
   18.5214  -12.2561   -0.8985 H   0  0  0  0  0  0  0  0  0  0  0  0
   14.9291  -13.4581    0.1869 H   0  0  0  0  0  0  0  0  0  0  0  0
   15.9364  -14.7016   -0.1383 H   0  0  0  0  0  0  0  0  0  0  0  0
   12.9809  -11.0085    4.0419 H   0  0  0  0  0  0  0  0  0  0  0  0
   14.8488  -12.0690    7.5656 H   0  0  0  0  0  0  0  0  0  0  0  0
   12.8699  -10.5490    8.0984 H   0  0  0  0  0  0  0  0  0  0  0  0
  1  2  1  0  0  0  0
  2  3  2  0  0  0  0
  2  4  1  0  0  0  0
  3  5  1  0  0  0  0
  3  6  1  0  0  0  0
  4  7  2  0  0  0  0
  6  8  2  0  0  0  0
  7  9  1  0  0  0  0
  8 10  1  0  0  0  0
 10 11  1  0  0  0  0
 11 12  1  0  0  0  0
 11 13  1  0  0  0  0
 12 14  2  0  0  0  0
 12 15  1  0  0  0  0
 13 16  1  0  0  0  0
 13 17  1  0  0  0  0
 15 18  1  0  0  0  0
 16 19  1  0  0  0  0
 17 20  1  0  0  0  0
 18 21  1  0  0  0  0
 18 22  1  0  0  0  0
 19 23  1  0  0  0  0
 21 24  2  0  0  0  0
 22 25  2  0  0  0  0
  7  8  1  0  0  0  0
 20 23  1  0  0  0  0
 24 25  1  0  0  0  0
  4 26  1  0  0  0  0
  6 27  1  0  0  0  0
 10 28  1  0  0  0  0
 10 29  1  0  0  0  0
 13 30  1  0  0  0  0
 15 31  1  0  0  0  0
 15 32  1  0  0  0  0
 16 33  1  0  0  0  0
 16 34  1  0  0  0  0
 17 35  1  0  0  0  0
 17 36  1  0  0  0  0
 19 37  1  0  0  0  0
 19 38  1  0  0  0  0
 20 39  1  0  0  0  0
 20 40  1  0  0  0  0
 21 41  1  0  0  0  0
 22 42  1  0  0  0  0
 25 43  1  0  0  0  0
M  END
> <BIOSOLVEIT.HYDE_ESTIMATED_AFFINITY_LOWER_BOUNDARY [nM]>
303799.627670

> <BIOSOLVEIT.HYDE_ESTIMATED_AFFINITY_UPPER_BOUNDARY [nM]>
30184289.214581

> <BIOSOLVEIT.HYDE_LIGAND_EFFICIENCY range: ++, +, 0, -, -->
--

> <BIOSOLVEIT.HYDE_LIGAND_LIPOPHILIC_EFFICIENCY range: ++, +, 0, -, -->
--

> <BIOSOLVEIT.INTER_CLASH range: red, yellow, green>
green

> <BIOSOLVEIT.INTRA_CLASH range: red, yellow, green>
green

> <BIOSOLVEIT.LOGP>
3.5368

> <BIOSOLVEIT.MOLECULAR WEIGHT>
386.252

> <BIOSOLVEIT.MOLECULE_CHECKSUM>
LTE0LjM3NzQ7MC41NzUwOTc=

> <BIOSOLVEIT.TORSION_QUALITY range: red, yellow, green, not rotatable>
yellow

> <BIOSOLVEIT.TPSA>
47.36

> <BIOSOLVEIT.SEESAR_FAVORITE>
favorite

> <smc_score>
1.0

> <QED_score>
0.739

> <distance>
0.685

> <SimilarityPheSA_1>
0.645

> <Smiles>
O=C(Cn1ccnc1)N(Cc1cc(Cl)c(Cl)cc1F)C1CCOCC1

> <Similarity_SkelSpheres>
0.583

> <Cluster No>
198.0

> <QueryID>
ALP-POS-87c86d55-1

> <SimilarityPheSA>
0.6449

> <Postera series>
3-aminopyridine-like

> <PDB_code>
Mpro-x12143

> <Approach>
DGM_exploratory_RL

> <ID>
20210628_483

> <SimilarityPheSA_2>
0.668

> <OPTIBRIUM.logD>
3.05718

> <OPTIBRIUM.BBB category>
-

> <OPTIBRIUM.logP>
3.05718

> <OPTIBRIUM.P-gp category>
no

> <OPTIBRIUM.logS>
1.96972

> <OPTIBRIUM.HIA category>
+

> <OPTIBRIUM.PPB90 category>
high

> <OPTIBRIUM.2D6 affinity category>
medium

> <OPTIBRIUM.hERG pIC50>
5.52835

> <OPTIBRIUM.2C9 pKi>
5.04409

> <OPTIBRIUM.BBB log([brain]:[blood])>
-0.295762

> <OPTIBRIUM.logS @ pH7.4>
1.96972

$$$$
Compound 1226_1_1
haSeeSAR  07122114523D 1   1.00000     0.00000     0
SeeSAR 11.0.2 hazemaj
 35 36  0  0  0  0            999 V2000
   19.3508   -6.7705    2.5896 Cl  0  0  0  0  0  0  0  0  0  0  0  0
   20.0812   -8.2640    3.2268 C   0  0  0  0  0  0  0  0  0  0  0  0
   21.3782   -8.2451    3.7282 C   0  0  0  0  0  0  0  0  0  0  0  0
   19.3434   -9.4421    3.2193 C   0  0  0  0  0  0  0  0  0  0  0  0
   22.3019   -6.7236    3.7253 Cl  0  0  0  0  0  0  0  0  0  0  0  0
   21.9580   -9.4060    4.2300 C   0  0  0  0  0  0  0  0  0  0  0  0
   19.9278  -10.5993    3.7216 C   0  0  0  0  0  0  0  0  0  0  0  0
   21.2247  -10.5879    4.2238 C   0  0  0  0  0  0  0  0  0  0  0  0
   19.1359  -11.8963    3.7218 C   0  0  0  0  0  0  0  0  0  0  0  0
   18.0770  -11.8237    4.7389 N   0  0  0  0  0  0  0  0  0  0  0  0
   16.8154  -11.4218    4.3870 C   0  0  0  0  0  0  0  0  0  0  0  0
   18.3718  -12.1824    6.1336 C   0  0  0  0  0  0  0  0  0  0  0  0
   16.5318  -10.2558    4.4000 O   0  0  0  0  0  0  0  0  0  0  0  0
   15.8778  -12.3509    4.0204 N   0  0  0  0  0  0  0  0  0  0  0  0
   14.5242  -11.9195    3.6428 C   0  0  0  0  0  0  0  0  0  0  0  0
   13.7819  -11.4396    4.8795 C   0  0  0  0  0  0  0  0  0  0  0  0
   14.0577  -11.7917    6.1132 O   0  0  0  0  0  0  0  0  0  0  0  0
   12.7651  -10.6083    4.8797 N   0  0  0  0  0  0  0  0  0  0  0  0
   13.1968  -11.1644    6.8769 C   0  0  0  0  0  0  0  0  0  0  0  0
   12.3989  -10.4376    6.1297 N   0  0  0  0  0  0  0  0  0  0  0  0
   13.1317  -11.2654    8.3918 C   0  0  0  0  0  0  0  0  0  0  0  0
   18.4103   -9.4571    2.8597 H   0  0  0  0  0  0  0  0  0  0  0  0
   22.8905   -9.3909    4.5907 H   0  0  0  0  0  0  0  0  0  0  0  0
   21.6300  -11.4295    4.5806 H   0  0  0  0  0  0  0  0  0  0  0  0
   19.7468  -12.6599    3.9305 H   0  0  0  0  0  0  0  0  0  0  0  0
   18.7239  -12.0354    2.8212 H   0  0  0  0  0  0  0  0  0  0  0  0
   17.5454  -12.0773    6.6868 H   0  0  0  0  0  0  0  0  0  0  0  0
   18.6820  -13.1322    6.1751 H   0  0  0  0  0  0  0  0  0  0  0  0
   19.0887  -11.5819    6.4879 H   0  0  0  0  0  0  0  0  0  0  0  0
   16.1142  -13.3224    4.0095 H   0  0  0  0  0  0  0  0  0  0  0  0
   14.0309  -12.6881    3.2353 H   0  0  0  0  0  0  0  0  0  0  0  0
   14.5848  -11.1733    2.9799 H   0  0  0  0  0  0  0  0  0  0  0  0
   12.3877  -10.6907    8.7325 H   0  0  0  0  0  0  0  0  0  0  0  0
   12.9666  -12.2156    8.6557 H   0  0  0  0  0  0  0  0  0  0  0  0
   13.9982  -10.9562    8.7839 H   0  0  0  0  0  0  0  0  0  0  0  0
  1  2  1  0  0  0  0
  2  3  2  0  0  0  0
  2  4  1  0  0  0  0
  3  5  1  0  0  0  0
  3  6  1  0  0  0  0
  4  7  2  0  0  0  0
  6  8  2  0  0  0  0
  7  9  1  0  0  0  0
  9 10  1  0  0  0  0
 10 11  1  0  0  0  0
 10 12  1  0  0  0  0
 11 13  2  0  0  0  0
 11 14  1  0  0  0  0
 14 15  1  0  0  0  0
 15 16  1  0  0  0  0
 16 17  1  0  0  0  0
 16 18  2  0  0  0  0
 17 19  1  0  0  0  0
 18 20  1  0  0  0  0
 19 21  1  0  0  0  0
  7  8  1  0  0  0  0
 19 20  2  0  0  0  0
  4 22  1  0  0  0  0
  6 23  1  0  0  0  0
  8 24  1  0  0  0  0
  9 25  1  0  0  0  0
  9 26  1  0  0  0  0
 12 27  1  0  0  0  0
 12 28  1  0  0  0  0
 12 29  1  0  0  0  0
 14 30  1  0  0  0  0
 15 31  1  0  0  0  0
 15 32  1  0  0  0  0
 21 33  1  0  0  0  0
 21 34  1  0  0  0  0
 21 35  1  0  0  0  0
M  END
> <BIOSOLVEIT.HYDE_ESTIMATED_AFFINITY_LOWER_BOUNDARY [nM]>
877406895.030732

> <BIOSOLVEIT.HYDE_ESTIMATED_AFFINITY_UPPER_BOUNDARY [nM]>
87175562661.422592

> <BIOSOLVEIT.HYDE_LIGAND_EFFICIENCY range: ++, +, 0, -, -->
--

> <BIOSOLVEIT.HYDE_LIGAND_LIPOPHILIC_EFFICIENCY range: ++, +, 0, -, -->
--

> <BIOSOLVEIT.INTER_CLASH range: red, yellow, green>
green

> <BIOSOLVEIT.INTRA_CLASH range: red, yellow, green>
green

> <BIOSOLVEIT.LOGP>
3.02642

> <BIOSOLVEIT.MOLECULAR WEIGHT>
329.186

> <BIOSOLVEIT.MOLECULE_CHECKSUM>
NS4zNzU3OTsw

> <BIOSOLVEIT.TORSION_QUALITY range: red, yellow, green, not rotatable>
yellow

> <BIOSOLVEIT.TPSA>
71.26

> <BIOSOLVEIT.SEESAR_FAVORITE>
favorite

> <smc_score>
0.625

> <QED_score>
0.936

> <distance>
0.714

> <SimilarityPheSA_1>
0.656

> <Smiles>
Cc1nnc(CNC(=O)N(C)Cc2ccc(Cl)c(Cl)c2)o1

> <Similarity_SkelSpheres>
0.61

> <Cluster No>
205.0

> <QueryID>
JAN-GHE-5a013bed-2

> <SimilarityPheSA>
0.6564

> <Postera series>
3-aminopyridine-like

> <PDB_code>
Mpro-x10466

> <Approach>
DGM_exploratory_RL

> <ID>
20210628_496

> <SimilarityPheSA_2>
0.713

> <OPTIBRIUM.logD>
3.09111

> <OPTIBRIUM.BBB category>
-

> <OPTIBRIUM.logP>
3.09111

> <OPTIBRIUM.P-gp category>
no

> <OPTIBRIUM.logS>
2.30796

> <OPTIBRIUM.HIA category>
+

> <OPTIBRIUM.PPB90 category>
high

> <OPTIBRIUM.2D6 affinity category>
medium

> <OPTIBRIUM.hERG pIC50>
4.75797

> <OPTIBRIUM.2C9 pKi>
4.72722

> <OPTIBRIUM.BBB log([brain]:[blood])>
-0.490409

> <OPTIBRIUM.logS @ pH7.4>
2.30796

$$$$
Compound 1238_1_04
haSeeSAR  07122114523D 1   1.00000     0.00000     0
SeeSAR 11.0.2 hazemaj
 43 45  0  0  0  0            999 V2000
   21.7545   -6.1439    3.1802 Cl  0  0  0  0  0  0  0  0  0  0  0  0
   21.3114   -7.7826    3.7160 C   0  0  0  0  0  0  0  0  0  0  0  0
   20.0084   -8.2343    3.5430 C   0  0  0  0  0  0  0  0  0  0  0  0
   22.2744   -8.5953    4.3031 C   0  0  0  0  0  0  0  0  0  0  0  0
   18.7916   -7.1773    2.7879 Cl  0  0  0  0  0  0  0  0  0  0  0  0
   19.6440   -9.5112    3.9564 C   0  0  0  0  0  0  0  0  0  0  0  0
   21.9073   -9.8718    4.7149 C   0  0  0  0  0  0  0  0  0  0  0  0
   20.6051  -10.3263    4.5449 C   0  0  0  0  0  0  0  0  0  0  0  0
   22.8144  -10.6644    5.2776 F   0  0  0  0  0  0  0  0  0  0  0  0
   20.2220  -11.7251    5.0012 C   0  0  0  0  0  0  0  0  0  0  0  0
   20.0559  -11.7375    6.5120 C   0  0  0  0  0  0  0  0  0  0  0  0
   21.0013  -11.4289    7.2377 O   0  0  0  0  0  0  0  0  0  0  0  0
   18.8249  -12.1006    7.0797 N   0  0  0  0  0  0  0  0  0  0  0  0
   17.6177  -11.2782    6.9056 C   0  0  2  0  0  0  0  0  0  0  0  0
   18.6854  -13.3266    7.8811 C   0  0  0  0  0  0  0  0  0  0  0  0
   16.6835  -11.5676    8.0760 C   0  0  0  0  0  0  0  0  0  0  0  0
   16.9350  -11.5518    5.5747 C   0  0  0  0  0  0  0  0  0  0  0  0
   17.2654  -13.8832    7.8132 C   0  0  0  0  0  0  0  0  0  0  0  0
   16.2680  -12.9294    8.1749 O   0  0  0  0  0  0  0  0  0  0  0  0
   15.7839  -10.7290    5.4552 O   0  0  0  0  0  0  0  0  0  0  0  0
   14.5525  -11.2684    5.5799 C   0  0  0  0  0  0  0  0  0  0  0  0
   13.4174  -10.4766    5.7216 C   0  0  0  0  0  0  0  0  0  0  0  0
   14.3992  -12.6507    5.5683 C   0  0  0  0  0  0  0  0  0  0  0  0
   12.2009  -11.0277    5.8462 N   0  0  0  0  0  0  0  0  0  0  0  0
   13.1282  -13.2008    5.6980 C   0  0  0  0  0  0  0  0  0  0  0  0
   12.0301  -12.3582    5.8384 C   0  0  0  0  0  0  0  0  0  0  0  0
   23.2114   -8.2688    4.4265 H   0  0  0  0  0  0  0  0  0  0  0  0
   18.7069   -9.8377    3.8327 H   0  0  0  0  0  0  0  0  0  0  0  0
   20.9406  -12.3695    4.7396 H   0  0  0  0  0  0  0  0  0  0  0  0
   19.3609  -11.9926    4.5690 H   0  0  0  0  0  0  0  0  0  0  0  0
   17.8807  -10.3138    6.9375 H   0  0  0  0  0  0  0  0  0  0  0  0
   18.9073  -13.1188    8.8338 H   0  0  0  0  0  0  0  0  0  0  0  0
   19.3211  -14.0159    7.5335 H   0  0  0  0  0  0  0  0  0  0  0  0
   15.8677  -10.9983    7.9735 H   0  0  0  0  0  0  0  0  0  0  0  0
   17.1567  -11.3227    8.9222 H   0  0  0  0  0  0  0  0  0  0  0  0
   16.6634  -12.5132    5.5309 H   0  0  0  0  0  0  0  0  0  0  0  0
   17.5682  -11.3499    4.8275 H   0  0  0  0  0  0  0  0  0  0  0  0
   17.1999  -14.6628    8.4360 H   0  0  0  0  0  0  0  0  0  0  0  0
   17.0884  -14.1882    6.8774 H   0  0  0  0  0  0  0  0  0  0  0  0
   13.5099   -9.4810    5.7308 H   0  0  0  0  0  0  0  0  0  0  0  0
   15.1971  -13.2449    5.4674 H   0  0  0  0  0  0  0  0  0  0  0  0
   13.0050  -14.1931    5.6904 H   0  0  0  0  0  0  0  0  0  0  0  0
   11.1128  -12.7447    5.9336 H   0  0  0  0  0  0  0  0  0  0  0  0
  1  2  1  0  0  0  0
  2  3  2  0  0  0  0
  2  4  1  0  0  0  0
  3  5  1  0  0  0  0
  3  6  1  0  0  0  0
  4  7  2  0  0  0  0
  6  8  2  0  0  0  0
  7  9  1  0  0  0  0
  8 10  1  0  0  0  0
 10 11  1  0  0  0  0
 11 12  2  0  0  0  0
 11 13  1  0  0  0  0
 13 14  1  0  0  0  0
 13 15  1  0  0  0  0
 14 16  1  0  0  0  0
 14 17  1  0  0  0  0
 15 18  1  0  0  0  0
 16 19  1  0  0  0  0
 17 20  1  0  0  0  0
 20 21  1  0  0  0  0
 21 22  2  0  0  0  0
 21 23  1  0  0  0  0
 22 24  1  0  0  0  0
 23 25  2  0  0  0  0
 24 26  2  0  0  0  0
  7  8  1  0  0  0  0
 18 19  1  0  0  0  0
 25 26  1  0  0  0  0
  4 27  1  0  0  0  0
  6 28  1  0  0  0  0
 10 29  1  0  0  0  0
 10 30  1  0  0  0  0
 14 31  1  0  0  0  0
 15 32  1  0  0  0  0
 15 33  1  0  0  0  0
 16 34  1  0  0  0  0
 16 35  1  0  0  0  0
 17 36  1  0  0  0  0
 17 37  1  0  0  0  0
 18 38  1  0  0  0  0
 18 39  1  0  0  0  0
 22 40  1  0  0  0  0
 23 41  1  0  0  0  0
 25 42  1  0  0  0  0
 26 43  1  0  0  0  0
M  END
> <BIOSOLVEIT.HYDE_ESTIMATED_AFFINITY_LOWER_BOUNDARY [nM]>
592802101.888601

> <BIOSOLVEIT.HYDE_ESTIMATED_AFFINITY_UPPER_BOUNDARY [nM]>
58898393746.042618

> <BIOSOLVEIT.HYDE_LIGAND_EFFICIENCY range: ++, +, 0, -, -->
--

> <BIOSOLVEIT.HYDE_LIGAND_LIPOPHILIC_EFFICIENCY range: ++, +, 0, -, -->
--

> <BIOSOLVEIT.INTER_CLASH range: red, yellow, green>
green

> <BIOSOLVEIT.INTRA_CLASH range: red, yellow, green>
green

> <BIOSOLVEIT.LOGP>
3.3764

> <BIOSOLVEIT.MOLECULAR WEIGHT>
399.247

> <BIOSOLVEIT.MOLECULE_CHECKSUM>
NC40MDM3Nzsw

> <BIOSOLVEIT.TORSION_QUALITY range: red, yellow, green, not rotatable>
yellow

> <BIOSOLVEIT.TPSA>
51.66

> <BIOSOLVEIT.SEESAR_FAVORITE>
favorite

> <smc_score>
0.875

> <QED_score>
0.724

> <distance>
0.696

> <SimilarityPheSA_1>
0.663

> <Smiles>
O=C(Cc1cc(Cl)c(Cl)cc1F)N1CCOCC1COc1cccnc1

> <Similarity_SkelSpheres>
0.668

> <Cluster No>
211.0

> <QueryID>
MAT-POS-bb423b95-1

> <SimilarityPheSA>
0.6626

> <Postera series>
3-aminopyridine-like

> <PDB_code>
Mpro-x11542

> <Approach>
DGM_exploratory_RL

> <ID>
20210628_508

> <SimilarityPheSA_2>
0.695

> <OPTIBRIUM.logD>
2.90617

> <OPTIBRIUM.BBB category>
-

> <OPTIBRIUM.logP>
2.90617

> <OPTIBRIUM.P-gp category>
yes

> <OPTIBRIUM.logS>
1.69467

> <OPTIBRIUM.HIA category>
+

> <OPTIBRIUM.PPB90 category>
high

> <OPTIBRIUM.2D6 affinity category>
medium

> <OPTIBRIUM.hERG pIC50>
5.23643

> <OPTIBRIUM.2C9 pKi>
5.38782

> <OPTIBRIUM.BBB log([brain]:[blood])>
-0.285111

> <OPTIBRIUM.logS @ pH7.4>
1.69467

$$$$
Compound 1264_1_1
haSeeSAR  07122114523D 1   1.00000     0.00000     0
SeeSAR 11.0.2 hazemaj
 47 49  0  0  0  0            999 V2000
   21.1477  -14.4954    5.8476 Cl  0  0  0  0  0  0  0  0  0  0  0  0
   19.7469  -13.5645    6.4287 C   0  0  0  0  0  0  0  0  0  0  0  0
   19.4781  -12.3087    5.8972 C   0  0  0  0  0  0  0  0  0  0  0  0
   18.9287  -14.1032    7.4161 C   0  0  0  0  0  0  0  0  0  0  0  0
   20.5393  -11.6389    4.6350 Cl  0  0  0  0  0  0  0  0  0  0  0  0
   18.3884  -11.5679    6.3418 C   0  0  0  0  0  0  0  0  0  0  0  0
   17.8380  -13.3638    7.8613 C   0  0  0  0  0  0  0  0  0  0  0  0
   17.5713  -12.1077    7.3288 C   0  0  0  0  0  0  0  0  0  0  0  0
   17.0477  -13.8677    8.8028 F   0  0  0  0  0  0  0  0  0  0  0  0
   16.3752  -11.3131    7.8287 C   0  0  0  0  0  0  0  0  0  0  0  0
   15.1893  -11.6595    7.0322 N   0  0  0  0  0  0  0  0  0  0  0  0
   15.2759  -11.7326    5.7141 C   0  0  0  0  0  0  0  0  0  0  0  0
   13.9071  -11.9246    7.7003 C   0  0  2  0  0  0  0  0  0  0  0  0
   15.5317  -10.7234    5.0572 O   0  0  0  0  0  0  0  0  0  0  0  0
   15.0597  -13.0626    5.0109 C   0  0  0  0  0  0  0  0  0  0  0  0
   12.9987  -10.7149    7.5520 C   0  0  0  0  0  0  0  0  0  0  0  0
   14.1512  -12.1969    9.1757 C   0  0  0  0  0  0  0  0  0  0  0  0
   16.1086  -13.2585    3.9996 N   0  0  0  0  0  0  0  0  0  0  0  0
   12.4361  -10.7026    6.2483 O   0  0  0  0  0  0  0  0  0  0  0  0
   17.2131  -13.9382    4.1765 N   0  0  0  0  0  0  0  0  0  0  0  0
   16.0947  -12.7683    2.7295 C   0  0  0  0  0  0  0  0  0  0  0  0
   11.9729  -12.0043    5.9202 C   0  0  0  0  0  0  0  0  0  0  0  0
   17.9167  -13.9290    3.1246 N   0  0  0  0  0  0  0  0  0  0  0  0
   17.2666  -13.2037    2.1664 C   0  0  0  0  0  0  0  0  0  0  0  0
   15.1842  -11.9961    2.0137 C   0  0  0  0  0  0  0  0  0  0  0  0
   17.5339  -12.8539    0.8463 C   0  0  0  0  0  0  0  0  0  0  0  0
   15.4543  -11.6471    0.6948 C   0  0  0  0  0  0  0  0  0  0  0  0
   16.6394  -12.0824    0.1116 C   0  0  0  0  0  0  0  0  0  0  0  0
   19.1213  -15.0065    7.7994 H   0  0  0  0  0  0  0  0  0  0  0  0
   18.1961  -10.6644    5.9588 H   0  0  0  0  0  0  0  0  0  0  0  0
   16.5635  -10.3351    7.7384 H   0  0  0  0  0  0  0  0  0  0  0  0
   16.2072  -11.5327    8.7897 H   0  0  0  0  0  0  0  0  0  0  0  0
   13.4717  -12.7217    7.2819 H   0  0  0  0  0  0  0  0  0  0  0  0
   14.1638  -13.0629    4.5663 H   0  0  0  0  0  0  0  0  0  0  0  0
   15.0997  -13.8042    5.6806 H   0  0  0  0  0  0  0  0  0  0  0  0
   13.5301   -9.8797    7.6936 H   0  0  0  0  0  0  0  0  0  0  0  0
   12.2660  -10.7629    8.2308 H   0  0  0  0  0  0  0  0  0  0  0  0
   13.2789  -12.3773    9.6302 H   0  0  0  0  0  0  0  0  0  0  0  0
   14.7488  -12.9927    9.2734 H   0  0  0  0  0  0  0  0  0  0  0  0
   14.5866  -11.3998    9.5942 H   0  0  0  0  0  0  0  0  0  0  0  0
   11.5768  -11.9956    5.0022 H   0  0  0  0  0  0  0  0  0  0  0  0
   12.7386  -12.6469    5.9467 H   0  0  0  0  0  0  0  0  0  0  0  0
   11.2775  -12.2869    6.5808 H   0  0  0  0  0  0  0  0  0  0  0  0
   14.3359  -11.6925    2.4477 H   0  0  0  0  0  0  0  0  0  0  0  0
   18.3834  -13.1625    0.4185 H   0  0  0  0  0  0  0  0  0  0  0  0
   14.8063  -11.0915    0.1738 H   0  0  0  0  0  0  0  0  0  0  0  0
   16.8485  -11.8408   -0.8360 H   0  0  0  0  0  0  0  0  0  0  0  0
  1  2  1  0  0  0  0
  2  3  2  0  0  0  0
  2  4  1  0  0  0  0
  3  5  1  0  0  0  0
  3  6  1  0  0  0  0
  4  7  2  0  0  0  0
  6  8  2  0  0  0  0
  7  9  1  0  0  0  0
  8 10  1  0  0  0  0
 10 11  1  0  0  0  0
 11 12  1  0  0  0  0
 11 13  1  0  0  0  0
 12 14  2  0  0  0  0
 12 15  1  0  0  0  0
 13 16  1  0  0  0  0
 13 17  1  0  0  0  0
 15 18  1  0  0  0  0
 16 19  1  0  0  0  0
 18 20  1  0  0  0  0
 18 21  1  0  0  0  0
 19 22  1  0  0  0  0
 20 23  2  0  0  0  0
 21 24  2  0  0  0  0
 21 25  1  0  0  0  0
 24 26  1  0  0  0  0
 25 27  2  0  0  0  0
 26 28  2  0  0  0  0
  7  8  1  0  0  0  0
 23 24  1  0  0  0  0
 27 28  1  0  0  0  0
  4 29  1  0  0  0  0
  6 30  1  0  0  0  0
 10 31  1  0  0  0  0
 10 32  1  0  0  0  0
 13 33  1  0  0  0  0
 15 34  1  0  0  0  0
 15 35  1  0  0  0  0
 16 36  1  0  0  0  0
 16 37  1  0  0  0  0
 17 38  1  0  0  0  0
 17 39  1  0  0  0  0
 17 40  1  0  0  0  0
 22 41  1  0  0  0  0
 22 42  1  0  0  0  0
 22 43  1  0  0  0  0
 25 44  1  0  0  0  0
 26 45  1  0  0  0  0
 27 46  1  0  0  0  0
 28 47  1  0  0  0  0
M  END
> <BIOSOLVEIT.HYDE_ESTIMATED_AFFINITY_LOWER_BOUNDARY [nM]>
6608353.094974

> <BIOSOLVEIT.HYDE_ESTIMATED_AFFINITY_UPPER_BOUNDARY [nM]>
656578951.661343

> <BIOSOLVEIT.HYDE_LIGAND_EFFICIENCY range: ++, +, 0, -, -->
--

> <BIOSOLVEIT.HYDE_LIGAND_LIPOPHILIC_EFFICIENCY range: ++, +, 0, -, -->
--

> <BIOSOLVEIT.INTER_CLASH range: red, yellow, green>
green

> <BIOSOLVEIT.INTRA_CLASH range: red, yellow, green>
green

> <BIOSOLVEIT.LOGP>
3.9409

> <BIOSOLVEIT.MOLECULAR WEIGHT>
425.289

> <BIOSOLVEIT.MOLECULE_CHECKSUM>
LTYuNzQyOTM7MC4yNDA4MTk=

> <BIOSOLVEIT.TORSION_QUALITY range: red, yellow, green, not rotatable>
red

> <BIOSOLVEIT.TPSA>
60.25

> <BIOSOLVEIT.SEESAR_FAVORITE>
favorite

> <smc_score>
0.938

> <QED_score>
0.538

> <distance>
0.527

> <SimilarityPheSA_1>
0.674

> <Smiles>
COCC(C)N(Cc1cc(Cl)c(Cl)cc1F)C(=O)Cn1nnc2ccccc21

> <Similarity_SkelSpheres>
0.72

> <Cluster No>
221.0

> <QueryID>
ALP-POS-87c86d55-1

> <SimilarityPheSA>
0.674

> <Postera series>
3-aminopyridine-like

> <PDB_code>
Mpro-x12143

> <Approach>
DGM_exploratory_RL

> <ID>
20210628_534

> <SimilarityPheSA_2>
0.865

> <OPTIBRIUM.logD>
3.34027

> <OPTIBRIUM.BBB category>
-

> <OPTIBRIUM.logP>
3.34027

> <OPTIBRIUM.P-gp category>
no

> <OPTIBRIUM.logS>
2.14883

> <OPTIBRIUM.HIA category>
+

> <OPTIBRIUM.PPB90 category>
high

> <OPTIBRIUM.2D6 affinity category>
medium

> <OPTIBRIUM.hERG pIC50>
6.03018

> <OPTIBRIUM.2C9 pKi>
5.271

> <OPTIBRIUM.BBB log([brain]:[blood])>
-0.489893

> <OPTIBRIUM.logS @ pH7.4>
2.14883

$$$$
Compound 1264_1_2
haSeeSAR  07122114523D 1   1.00000     0.00000     0
SeeSAR 11.0.2 hazemaj
 47 49  0  0  0  0            999 V2000
   20.7894  -15.2446    6.2765 Cl  0  0  0  0  0  0  0  0  0  0  0  0
   19.4856  -14.1296    6.7492 C   0  0  0  0  0  0  0  0  0  0  0  0
   18.3471  -14.6188    7.3789 C   0  0  0  0  0  0  0  0  0  0  0  0
   19.6161  -12.7709    6.4821 C   0  0  0  0  0  0  0  0  0  0  0  0
   18.2013  -16.3616    7.7099 Cl  0  0  0  0  0  0  0  0  0  0  0  0
   17.3186  -13.7609    7.7531 C   0  0  0  0  0  0  0  0  0  0  0  0
   18.5886  -11.9115    6.8564 C   0  0  0  0  0  0  0  0  0  0  0  0
   17.4505  -12.4028    7.4856 C   0  0  0  0  0  0  0  0  0  0  0  0
   18.7018  -10.6112    6.6085 F   0  0  0  0  0  0  0  0  0  0  0  0
   16.3366  -11.4487    7.8862 C   0  0  0  0  0  0  0  0  0  0  0  0
   15.1536  -11.6978    7.0501 N   0  0  0  0  0  0  0  0  0  0  0  0
   15.2654  -11.7080    5.7318 C   0  0  0  0  0  0  0  0  0  0  0  0
   13.8462  -11.9356    7.6786 C   0  0  2  0  0  0  0  0  0  0  0  0
   15.5725  -10.6777    5.1322 O   0  0  0  0  0  0  0  0  0  0  0  0
   15.0148  -12.9919    4.9578 C   0  0  0  0  0  0  0  0  0  0  0  0
   12.9660  -10.7098    7.4967 C   0  0  0  0  0  0  0  0  0  0  0  0
   14.0388  -12.2053    9.1620 C   0  0  0  0  0  0  0  0  0  0  0  0
   16.0888  -13.1882    3.9733 N   0  0  0  0  0  0  0  0  0  0  0  0
   12.4116  -10.7151    6.1894 O   0  0  0  0  0  0  0  0  0  0  0  0
   17.2032  -13.8402    4.1888 N   0  0  0  0  0  0  0  0  0  0  0  0
   16.0919  -12.7270    2.6923 C   0  0  0  0  0  0  0  0  0  0  0  0
   11.9419  -12.0189    5.8797 C   0  0  0  0  0  0  0  0  0  0  0  0
   17.9286  -13.8397    3.1518 N   0  0  0  0  0  0  0  0  0  0  0  0
   17.2842  -13.1500    2.1639 C   0  0  0  0  0  0  0  0  0  0  0  0
   15.1810  -11.9906    1.9402 C   0  0  0  0  0  0  0  0  0  0  0  0
   17.5723  -12.8245    0.8420 C   0  0  0  0  0  0  0  0  0  0  0  0
   15.4719  -11.6657    0.6196 C   0  0  0  0  0  0  0  0  0  0  0  0
   16.6779  -12.0888    0.0714 C   0  0  0  0  0  0  0  0  0  0  0  0
   20.4346  -12.4180    6.0288 H   0  0  0  0  0  0  0  0  0  0  0  0
   16.4999  -14.1139    8.2059 H   0  0  0  0  0  0  0  0  0  0  0  0
   16.6433  -10.5056    7.7575 H   0  0  0  0  0  0  0  0  0  0  0  0
   16.1023  -11.5946    8.8474 H   0  0  0  0  0  0  0  0  0  0  0  0
   13.4092  -12.7263    7.2501 H   0  0  0  0  0  0  0  0  0  0  0  0
   14.1361  -12.9296    4.4845 H   0  0  0  0  0  0  0  0  0  0  0  0
   14.9980  -13.7653    5.5915 H   0  0  0  0  0  0  0  0  0  0  0  0
   13.5151   -9.8836    7.6225 H   0  0  0  0  0  0  0  0  0  0  0  0
   12.2284  -10.7258    8.1717 H   0  0  0  0  0  0  0  0  0  0  0  0
   13.1493  -12.3671    9.5897 H   0  0  0  0  0  0  0  0  0  0  0  0
   14.6178  -13.0118    9.2818 H   0  0  0  0  0  0  0  0  0  0  0  0
   14.4758  -11.4146    9.5907 H   0  0  0  0  0  0  0  0  0  0  0  0
   11.5515  -12.0226    4.9591 H   0  0  0  0  0  0  0  0  0  0  0  0
   12.7031  -12.6660    5.9215 H   0  0  0  0  0  0  0  0  0  0  0  0
   11.2405  -12.2862    6.5404 H   0  0  0  0  0  0  0  0  0  0  0  0
   14.3176  -11.6954    2.3494 H   0  0  0  0  0  0  0  0  0  0  0  0
   18.4370  -13.1245    0.4392 H   0  0  0  0  0  0  0  0  0  0  0  0
   14.8238  -11.1358    0.0726 H   0  0  0  0  0  0  0  0  0  0  0  0
   16.9021  -11.8642   -0.8769 H   0  0  0  0  0  0  0  0  0  0  0  0
  1  2  1  0  0  0  0
  2  3  2  0  0  0  0
  2  4  1  0  0  0  0
  3  5  1  0  0  0  0
  3  6  1  0  0  0  0
  4  7  2  0  0  0  0
  6  8  2  0  0  0  0
  7  9  1  0  0  0  0
  8 10  1  0  0  0  0
 10 11  1  0  0  0  0
 11 12  1  0  0  0  0
 11 13  1  0  0  0  0
 12 14  2  0  0  0  0
 12 15  1  0  0  0  0
 13 16  1  0  0  0  0
 13 17  1  0  0  0  0
 15 18  1  0  0  0  0
 16 19  1  0  0  0  0
 18 20  1  0  0  0  0
 18 21  1  0  0  0  0
 19 22  1  0  0  0  0
 20 23  2  0  0  0  0
 21 24  2  0  0  0  0
 21 25  1  0  0  0  0
 24 26  1  0  0  0  0
 25 27  2  0  0  0  0
 26 28  2  0  0  0  0
  7  8  1  0  0  0  0
 23 24  1  0  0  0  0
 27 28  1  0  0  0  0
  4 29  1  0  0  0  0
  6 30  1  0  0  0  0
 10 31  1  0  0  0  0
 10 32  1  0  0  0  0
 13 33  1  0  0  0  0
 15 34  1  0  0  0  0
 15 35  1  0  0  0  0
 16 36  1  0  0  0  0
 16 37  1  0  0  0  0
 17 38  1  0  0  0  0
 17 39  1  0  0  0  0
 17 40  1  0  0  0  0
 22 41  1  0  0  0  0
 22 42  1  0  0  0  0
 22 43  1  0  0  0  0
 25 44  1  0  0  0  0
 26 45  1  0  0  0  0
 27 46  1  0  0  0  0
 28 47  1  0  0  0  0
M  END
> <BIOSOLVEIT.HYDE_ESTIMATED_AFFINITY_LOWER_BOUNDARY [nM]>
7287703.058570

> <BIOSOLVEIT.HYDE_ESTIMATED_AFFINITY_UPPER_BOUNDARY [nM]>
724076387.179457

> <BIOSOLVEIT.HYDE_LIGAND_EFFICIENCY range: ++, +, 0, -, -->
--

> <BIOSOLVEIT.HYDE_LIGAND_LIPOPHILIC_EFFICIENCY range: ++, +, 0, -, -->
--

> <BIOSOLVEIT.INTER_CLASH range: red, yellow, green>
green

> <BIOSOLVEIT.INTRA_CLASH range: red, yellow, green>
green

> <BIOSOLVEIT.LOGP>
3.9409

> <BIOSOLVEIT.MOLECULAR WEIGHT>
425.289

> <BIOSOLVEIT.MOLECULE_CHECKSUM>
LTYuNTAwMzU7MC4yMzIxNTU=

> <BIOSOLVEIT.TORSION_QUALITY range: red, yellow, green, not rotatable>
red

> <BIOSOLVEIT.TPSA>
60.25

> <BIOSOLVEIT.SEESAR_FAVORITE>
favorite

> <smc_score>
0.938

> <QED_score>
0.538

> <distance>
0.527

> <SimilarityPheSA_1>
0.674

> <Smiles>
COCC(C)N(Cc1cc(Cl)c(Cl)cc1F)C(=O)Cn1nnc2ccccc21

> <Similarity_SkelSpheres>
0.72

> <Cluster No>
221.0

> <QueryID>
ALP-POS-87c86d55-1

> <SimilarityPheSA>
0.674

> <Postera series>
3-aminopyridine-like

> <PDB_code>
Mpro-x12143

> <Approach>
DGM_exploratory_RL

> <ID>
20210628_534

> <SimilarityPheSA_2>
0.865

> <OPTIBRIUM.logD>
3.34027

> <OPTIBRIUM.BBB category>
-

> <OPTIBRIUM.logP>
3.34027

> <OPTIBRIUM.P-gp category>
no

> <OPTIBRIUM.logS>
2.14883

> <OPTIBRIUM.HIA category>
+

> <OPTIBRIUM.PPB90 category>
high

> <OPTIBRIUM.2D6 affinity category>
medium

> <OPTIBRIUM.hERG pIC50>
6.03018

> <OPTIBRIUM.2C9 pKi>
5.271

> <OPTIBRIUM.BBB log([brain]:[blood])>
-0.489893

> <OPTIBRIUM.logS @ pH7.4>
2.14883

$$$$
Compound 1264_1_3
haSeeSAR  07122114523D 1   1.00000     0.00000     0
SeeSAR 11.0.2 hazemaj
 47 49  0  0  0  0            999 V2000
   18.9519  -16.6437    9.5121 Cl  0  0  0  0  0  0  0  0  0  0  0  0
   18.1789  -15.1082    9.0524 C   0  0  0  0  0  0  0  0  0  0  0  0
   17.9586  -14.8150    7.7118 C   0  0  0  0  0  0  0  0  0  0  0  0
   17.8005  -14.2084   10.0434 C   0  0  0  0  0  0  0  0  0  0  0  0
   18.4518  -15.9810    6.4606 Cl  0  0  0  0  0  0  0  0  0  0  0  0
   17.3572  -13.6187    7.3361 C   0  0  0  0  0  0  0  0  0  0  0  0
   17.1983  -13.0119    9.6692 C   0  0  0  0  0  0  0  0  0  0  0  0
   16.9794  -12.7204    8.3277 C   0  0  0  0  0  0  0  0  0  0  0  0
   16.8307  -12.1447   10.6062 F   0  0  0  0  0  0  0  0  0  0  0  0
   16.3210  -11.4067    7.9372 C   0  0  0  0  0  0  0  0  0  0  0  0
   15.1556  -11.6774    7.0833 N   0  0  0  0  0  0  0  0  0  0  0  0
   15.2934  -11.7140    5.7680 C   0  0  0  0  0  0  0  0  0  0  0  0
   13.8369  -11.9076    7.6908 C   0  0  2  0  0  0  0  0  0  0  0  0
   15.6366  -10.7020    5.1568 O   0  0  0  0  0  0  0  0  0  0  0  0
   15.0280  -13.0054    5.0116 C   0  0  0  0  0  0  0  0  0  0  0  0
   12.9562  -10.6892    7.4669 C   0  0  0  0  0  0  0  0  0  0  0  0
   14.0012  -12.1467    9.1828 C   0  0  0  0  0  0  0  0  0  0  0  0
   16.0734  -13.2028    3.9971 N   0  0  0  0  0  0  0  0  0  0  0  0
   12.4227  -10.7260    6.1514 O   0  0  0  0  0  0  0  0  0  0  0  0
   17.1848  -13.8709    4.1756 N   0  0  0  0  0  0  0  0  0  0  0  0
   16.0489  -12.7263    2.7220 C   0  0  0  0  0  0  0  0  0  0  0  0
   11.9410  -12.0324    5.8724 C   0  0  0  0  0  0  0  0  0  0  0  0
   17.8830  -13.8667    3.1201 N   0  0  0  0  0  0  0  0  0  0  0  0
   17.2217  -13.1574    2.1576 C   0  0  0  0  0  0  0  0  0  0  0  0
   15.1280  -11.9699    2.0027 C   0  0  0  0  0  0  0  0  0  0  0  0
   17.4793  -12.8195    0.8325 C   0  0  0  0  0  0  0  0  0  0  0  0
   15.3884  -11.6326    0.6788 C   0  0  0  0  0  0  0  0  0  0  0  0
   16.5743  -12.0637    0.0942 C   0  0  0  0  0  0  0  0  0  0  0  0
   17.9588  -14.4183   11.0082 H   0  0  0  0  0  0  0  0  0  0  0  0
   17.1994  -13.4088    6.3712 H   0  0  0  0  0  0  0  0  0  0  0  0
   16.9766  -10.8409    7.4369 H   0  0  0  0  0  0  0  0  0  0  0  0
   16.0253  -10.9241    8.7617 H   0  0  0  0  0  0  0  0  0  0  0  0
   13.4111  -12.7085    7.2698 H   0  0  0  0  0  0  0  0  0  0  0  0
   14.1351  -12.9522    4.5642 H   0  0  0  0  0  0  0  0  0  0  0  0
   15.0350  -13.7739    5.6514 H   0  0  0  0  0  0  0  0  0  0  0  0
   13.5008   -9.8585    7.5826 H   0  0  0  0  0  0  0  0  0  0  0  0
   12.2079  -10.6922    8.1302 H   0  0  0  0  0  0  0  0  0  0  0  0
   13.1041  -12.3033    9.5961 H   0  0  0  0  0  0  0  0  0  0  0  0
   14.5805  -12.9483    9.3302 H   0  0  0  0  0  0  0  0  0  0  0  0
   14.4269  -11.3457    9.6039 H   0  0  0  0  0  0  0  0  0  0  0  0
   11.5654  -12.0584    4.9460 H   0  0  0  0  0  0  0  0  0  0  0  0
   12.6929  -12.6875    5.9456 H   0  0  0  0  0  0  0  0  0  0  0  0
   11.2257  -12.2711    6.5291 H   0  0  0  0  0  0  0  0  0  0  0  0
   14.2792  -11.6691    2.4377 H   0  0  0  0  0  0  0  0  0  0  0  0
   18.3294  -13.1251    0.4037 H   0  0  0  0  0  0  0  0  0  0  0  0
   14.7329  -11.0883    0.1552 H   0  0  0  0  0  0  0  0  0  0  0  0
   16.7765  -11.8304   -0.8569 H   0  0  0  0  0  0  0  0  0  0  0  0
  1  2  1  0  0  0  0
  2  3  2  0  0  0  0
  2  4  1  0  0  0  0
  3  5  1  0  0  0  0
  3  6  1  0  0  0  0
  4  7  2  0  0  0  0
  6  8  2  0  0  0  0
  7  9  1  0  0  0  0
  8 10  1  0  0  0  0
 10 11  1  0  0  0  0
 11 12  1  0  0  0  0
 11 13  1  0  0  0  0
 12 14  2  0  0  0  0
 12 15  1  0  0  0  0
 13 16  1  0  0  0  0
 13 17  1  0  0  0  0
 15 18  1  0  0  0  0
 16 19  1  0  0  0  0
 18 20  1  0  0  0  0
 18 21  1  0  0  0  0
 19 22  1  0  0  0  0
 20 23  2  0  0  0  0
 21 24  2  0  0  0  0
 21 25  1  0  0  0  0
 24 26  1  0  0  0  0
 25 27  2  0  0  0  0
 26 28  2  0  0  0  0
  7  8  1  0  0  0  0
 23 24  1  0  0  0  0
 27 28  1  0  0  0  0
  4 29  1  0  0  0  0
  6 30  1  0  0  0  0
 10 31  1  0  0  0  0
 10 32  1  0  0  0  0
 13 33  1  0  0  0  0
 15 34  1  0  0  0  0
 15 35  1  0  0  0  0
 16 36  1  0  0  0  0
 16 37  1  0  0  0  0
 17 38  1  0  0  0  0
 17 39  1  0  0  0  0
 17 40  1  0  0  0  0
 22 41  1  0  0  0  0
 22 42  1  0  0  0  0
 22 43  1  0  0  0  0
 25 44  1  0  0  0  0
 26 45  1  0  0  0  0
 27 46  1  0  0  0  0
 28 47  1  0  0  0  0
M  END
> <BIOSOLVEIT.HYDE_ESTIMATED_AFFINITY_LOWER_BOUNDARY [nM]>
6940726.271320

> <BIOSOLVEIT.HYDE_ESTIMATED_AFFINITY_UPPER_BOUNDARY [nM]>
689602191.877066

> <BIOSOLVEIT.HYDE_LIGAND_EFFICIENCY range: ++, +, 0, -, -->
--

> <BIOSOLVEIT.HYDE_LIGAND_LIPOPHILIC_EFFICIENCY range: ++, +, 0, -, -->
--

> <BIOSOLVEIT.INTER_CLASH range: red, yellow, green>
green

> <BIOSOLVEIT.INTRA_CLASH range: red, yellow, green>
green

> <BIOSOLVEIT.LOGP>
3.9409

> <BIOSOLVEIT.MOLECULAR WEIGHT>
425.289

> <BIOSOLVEIT.MOLECULE_CHECKSUM>
LTYuNjIxMjg7MC4yMzY0NzQ=

> <BIOSOLVEIT.TORSION_QUALITY range: red, yellow, green, not rotatable>
red

> <BIOSOLVEIT.TPSA>
60.25

> <BIOSOLVEIT.SEESAR_FAVORITE>
favorite

> <smc_score>
0.938

> <QED_score>
0.538

> <distance>
0.527

> <SimilarityPheSA_1>
0.674

> <Smiles>
COCC(C)N(Cc1cc(Cl)c(Cl)cc1F)C(=O)Cn1nnc2ccccc21

> <Similarity_SkelSpheres>
0.72

> <Cluster No>
221.0

> <QueryID>
ALP-POS-87c86d55-1

> <SimilarityPheSA>
0.674

> <Postera series>
3-aminopyridine-like

> <PDB_code>
Mpro-x12143

> <Approach>
DGM_exploratory_RL

> <ID>
20210628_534

> <SimilarityPheSA_2>
0.865

> <OPTIBRIUM.logD>
3.34027

> <OPTIBRIUM.BBB category>
-

> <OPTIBRIUM.logP>
3.34027

> <OPTIBRIUM.P-gp category>
no

> <OPTIBRIUM.logS>
2.14883

> <OPTIBRIUM.HIA category>
+

> <OPTIBRIUM.PPB90 category>
high

> <OPTIBRIUM.2D6 affinity category>
medium

> <OPTIBRIUM.hERG pIC50>
6.03018

> <OPTIBRIUM.2C9 pKi>
5.271

> <OPTIBRIUM.BBB log([brain]:[blood])>
-0.489893

> <OPTIBRIUM.logS @ pH7.4>
2.14883

$$$$
Compound 1264_1_4
haSeeSAR  07122114523D 1   1.00000     0.00000     0
SeeSAR 11.0.2 hazemaj
 47 49  0  0  0  0            999 V2000
   20.7897  -15.2438    6.2775 Cl  0  0  0  0  0  0  0  0  0  0  0  0
   19.4857  -14.1291    6.7502 C   0  0  0  0  0  0  0  0  0  0  0  0
   18.3471  -14.6184    7.3793 C   0  0  0  0  0  0  0  0  0  0  0  0
   19.6163  -12.7702    6.4836 C   0  0  0  0  0  0  0  0  0  0  0  0
   18.2012  -16.3613    7.7096 Cl  0  0  0  0  0  0  0  0  0  0  0  0
   17.3185  -13.7606    7.7534 C   0  0  0  0  0  0  0  0  0  0  0  0
   18.5887  -11.9111    6.8578 C   0  0  0  0  0  0  0  0  0  0  0  0
   17.4505  -12.4025    7.4864 C   0  0  0  0  0  0  0  0  0  0  0  0
   18.7020  -10.6105    6.6104 F   0  0  0  0  0  0  0  0  0  0  0  0
   16.3364  -11.4484    7.8870 C   0  0  0  0  0  0  0  0  0  0  0  0
   15.1534  -11.6977    7.0508 N   0  0  0  0  0  0  0  0  0  0  0  0
   15.2654  -11.7083    5.7326 C   0  0  0  0  0  0  0  0  0  0  0  0
   13.8460  -11.9353    7.6794 C   0  0  2  0  0  0  0  0  0  0  0  0
   15.5721  -10.6780    5.1327 O   0  0  0  0  0  0  0  0  0  0  0  0
   15.0153  -12.9924    4.9589 C   0  0  0  0  0  0  0  0  0  0  0  0
   12.9659  -10.7095    7.4972 C   0  0  0  0  0  0  0  0  0  0  0  0
   14.0385  -12.2048    9.1628 C   0  0  0  0  0  0  0  0  0  0  0  0
   16.0892  -13.1883    3.9742 N   0  0  0  0  0  0  0  0  0  0  0  0
   12.4116  -10.7150    6.1898 O   0  0  0  0  0  0  0  0  0  0  0  0
   17.2037  -13.8402    4.1893 N   0  0  0  0  0  0  0  0  0  0  0  0
   16.0919  -12.7269    2.6933 C   0  0  0  0  0  0  0  0  0  0  0  0
   11.9421  -12.0188    5.8801 C   0  0  0  0  0  0  0  0  0  0  0  0
   17.9290  -13.8393    3.1523 N   0  0  0  0  0  0  0  0  0  0  0  0
   17.2843  -13.1496    2.1646 C   0  0  0  0  0  0  0  0  0  0  0  0
   15.1808  -11.9906    1.9415 C   0  0  0  0  0  0  0  0  0  0  0  0
   17.5720  -12.8238    0.8427 C   0  0  0  0  0  0  0  0  0  0  0  0
   15.4713  -11.6654    0.6209 C   0  0  0  0  0  0  0  0  0  0  0  0
   16.6773  -12.0881    0.0723 C   0  0  0  0  0  0  0  0  0  0  0  0
   20.4350  -12.4172    6.0307 H   0  0  0  0  0  0  0  0  0  0  0  0
   16.4996  -14.1138    8.2059 H   0  0  0  0  0  0  0  0  0  0  0  0
   16.6429  -10.5052    7.7582 H   0  0  0  0  0  0  0  0  0  0  0  0
   16.1021  -11.5944    8.8481 H   0  0  0  0  0  0  0  0  0  0  0  0
   13.4090  -12.7261    7.2509 H   0  0  0  0  0  0  0  0  0  0  0  0
   14.1364  -12.9308    4.4858 H   0  0  0  0  0  0  0  0  0  0  0  0
   14.9991  -13.7657    5.5927 H   0  0  0  0  0  0  0  0  0  0  0  0
   13.5149   -9.8833    7.6230 H   0  0  0  0  0  0  0  0  0  0  0  0
   12.2281  -10.7255    8.1720 H   0  0  0  0  0  0  0  0  0  0  0  0
   13.1490  -12.3665    9.5905 H   0  0  0  0  0  0  0  0  0  0  0  0
   14.6175  -13.0113    9.2828 H   0  0  0  0  0  0  0  0  0  0  0  0
   14.4755  -11.4140    9.5914 H   0  0  0  0  0  0  0  0  0  0  0  0
   11.5519  -12.0227    4.9595 H   0  0  0  0  0  0  0  0  0  0  0  0
   12.7034  -12.6658    5.9220 H   0  0  0  0  0  0  0  0  0  0  0  0
   11.2407  -12.2862    6.5407 H   0  0  0  0  0  0  0  0  0  0  0  0
   14.3173  -11.6956    2.3508 H   0  0  0  0  0  0  0  0  0  0  0  0
   18.4367  -13.1236    0.4397 H   0  0  0  0  0  0  0  0  0  0  0  0
   14.8230  -11.1355    0.0740 H   0  0  0  0  0  0  0  0  0  0  0  0
   16.9013  -11.8633   -0.8760 H   0  0  0  0  0  0  0  0  0  0  0  0
  1  2  1  0  0  0  0
  2  3  2  0  0  0  0
  2  4  1  0  0  0  0
  3  5  1  0  0  0  0
  3  6  1  0  0  0  0
  4  7  2  0  0  0  0
  6  8  2  0  0  0  0
  7  9  1  0  0  0  0
  8 10  1  0  0  0  0
 10 11  1  0  0  0  0
 11 12  1  0  0  0  0
 11 13  1  0  0  0  0
 12 14  2  0  0  0  0
 12 15  1  0  0  0  0
 13 16  1  0  0  0  0
 13 17  1  0  0  0  0
 15 18  1  0  0  0  0
 16 19  1  0  0  0  0
 18 20  1  0  0  0  0
 18 21  1  0  0  0  0
 19 22  1  0  0  0  0
 20 23  2  0  0  0  0
 21 24  2  0  0  0  0
 21 25  1  0  0  0  0
 24 26  1  0  0  0  0
 25 27  2  0  0  0  0
 26 28  2  0  0  0  0
  7  8  1  0  0  0  0
 23 24  1  0  0  0  0
 27 28  1  0  0  0  0
  4 29  1  0  0  0  0
  6 30  1  0  0  0  0
 10 31  1  0  0  0  0
 10 32  1  0  0  0  0
 13 33  1  0  0  0  0
 15 34  1  0  0  0  0
 15 35  1  0  0  0  0
 16 36  1  0  0  0  0
 16 37  1  0  0  0  0
 17 38  1  0  0  0  0
 17 39  1  0  0  0  0
 17 40  1  0  0  0  0
 22 41  1  0  0  0  0
 22 42  1  0  0  0  0
 22 43  1  0  0  0  0
 25 44  1  0  0  0  0
 26 45  1  0  0  0  0
 27 46  1  0  0  0  0
 28 47  1  0  0  0  0
M  END
> <BIOSOLVEIT.HYDE_ESTIMATED_AFFINITY_LOWER_BOUNDARY [nM]>
7300350.296284

> <BIOSOLVEIT.HYDE_ESTIMATED_AFFINITY_UPPER_BOUNDARY [nM]>
725332965.022776

> <BIOSOLVEIT.HYDE_LIGAND_EFFICIENCY range: ++, +, 0, -, -->
--

> <BIOSOLVEIT.HYDE_LIGAND_LIPOPHILIC_EFFICIENCY range: ++, +, 0, -, -->
--

> <BIOSOLVEIT.INTER_CLASH range: red, yellow, green>
green

> <BIOSOLVEIT.INTRA_CLASH range: red, yellow, green>
green

> <BIOSOLVEIT.LOGP>
3.9409

> <BIOSOLVEIT.MOLECULAR WEIGHT>
425.289

> <BIOSOLVEIT.MOLECULE_CHECKSUM>
LTYuNDk2MDU7MC4yMzIwMDI=

> <BIOSOLVEIT.TORSION_QUALITY range: red, yellow, green, not rotatable>
red

> <BIOSOLVEIT.TPSA>
60.25

> <BIOSOLVEIT.SEESAR_FAVORITE>
favorite

> <smc_score>
0.938

> <QED_score>
0.538

> <distance>
0.527

> <SimilarityPheSA_1>
0.674

> <Smiles>
COCC(C)N(Cc1cc(Cl)c(Cl)cc1F)C(=O)Cn1nnc2ccccc21

> <Similarity_SkelSpheres>
0.72

> <Cluster No>
221.0

> <QueryID>
ALP-POS-87c86d55-1

> <SimilarityPheSA>
0.674

> <Postera series>
3-aminopyridine-like

> <PDB_code>
Mpro-x12143

> <Approach>
DGM_exploratory_RL

> <ID>
20210628_534

> <SimilarityPheSA_2>
0.865

> <OPTIBRIUM.logD>
3.34027

> <OPTIBRIUM.BBB category>
-

> <OPTIBRIUM.logP>
3.34027

> <OPTIBRIUM.P-gp category>
no

> <OPTIBRIUM.logS>
2.14883

> <OPTIBRIUM.HIA category>
+

> <OPTIBRIUM.PPB90 category>
high

> <OPTIBRIUM.2D6 affinity category>
medium

> <OPTIBRIUM.hERG pIC50>
6.03018

> <OPTIBRIUM.2C9 pKi>
5.271

> <OPTIBRIUM.BBB log([brain]:[blood])>
-0.489893

> <OPTIBRIUM.logS @ pH7.4>
2.14883

$$$$
Compound 1264_1_5
haSeeSAR  07122114523D 1   1.00000     0.00000     0
SeeSAR 11.0.2 hazemaj
 47 49  0  0  0  0            999 V2000
   20.7898  -15.2437    6.2773 Cl  0  0  0  0  0  0  0  0  0  0  0  0
   19.4857  -14.1290    6.7501 C   0  0  0  0  0  0  0  0  0  0  0  0
   18.3473  -14.6184    7.3798 C   0  0  0  0  0  0  0  0  0  0  0  0
   19.6160  -12.7702    6.4830 C   0  0  0  0  0  0  0  0  0  0  0  0
   18.2019  -16.3611    7.7108 Cl  0  0  0  0  0  0  0  0  0  0  0  0
   17.3187  -13.7606    7.7541 C   0  0  0  0  0  0  0  0  0  0  0  0
   18.5883  -11.9110    6.8573 C   0  0  0  0  0  0  0  0  0  0  0  0
   17.4504  -12.4025    7.4865 C   0  0  0  0  0  0  0  0  0  0  0  0
   18.7012  -10.6106    6.6095 F   0  0  0  0  0  0  0  0  0  0  0  0
   16.3363  -11.4485    7.8872 C   0  0  0  0  0  0  0  0  0  0  0  0
   15.1534  -11.6978    7.0510 N   0  0  0  0  0  0  0  0  0  0  0  0
   15.2654  -11.7082    5.7327 C   0  0  0  0  0  0  0  0  0  0  0  0
   13.8459  -11.9354    7.6794 C   0  0  2  0  0  0  0  0  0  0  0  0
   15.5722  -10.6779    5.1330 O   0  0  0  0  0  0  0  0  0  0  0  0
   15.0151  -12.9923    4.9589 C   0  0  0  0  0  0  0  0  0  0  0  0
   12.9658  -10.7096    7.4972 C   0  0  0  0  0  0  0  0  0  0  0  0
   14.0382  -12.2049    9.1629 C   0  0  0  0  0  0  0  0  0  0  0  0
   16.0891  -13.1882    3.9743 N   0  0  0  0  0  0  0  0  0  0  0  0
   12.4116  -10.7150    6.1898 O   0  0  0  0  0  0  0  0  0  0  0  0
   17.2036  -13.8400    4.1895 N   0  0  0  0  0  0  0  0  0  0  0  0
   16.0919  -12.7269    2.6934 C   0  0  0  0  0  0  0  0  0  0  0  0
   11.9421  -12.0189    5.8801 C   0  0  0  0  0  0  0  0  0  0  0  0
   17.9290  -13.8393    3.1525 N   0  0  0  0  0  0  0  0  0  0  0  0
   17.2843  -13.1497    2.1647 C   0  0  0  0  0  0  0  0  0  0  0  0
   15.1808  -11.9906    1.9414 C   0  0  0  0  0  0  0  0  0  0  0  0
   17.5721  -12.8239    0.8428 C   0  0  0  0  0  0  0  0  0  0  0  0
   15.4714  -11.6656    0.6208 C   0  0  0  0  0  0  0  0  0  0  0  0
   16.6774  -12.0883    0.0723 C   0  0  0  0  0  0  0  0  0  0  0  0
   20.4345  -12.4171    6.0297 H   0  0  0  0  0  0  0  0  0  0  0  0
   16.5001  -14.1138    8.2069 H   0  0  0  0  0  0  0  0  0  0  0  0
   16.6427  -10.5053    7.7586 H   0  0  0  0  0  0  0  0  0  0  0  0
   16.1020  -11.5947    8.8483 H   0  0  0  0  0  0  0  0  0  0  0  0
   13.4089  -12.7262    7.2509 H   0  0  0  0  0  0  0  0  0  0  0  0
   14.1363  -12.9305    4.4857 H   0  0  0  0  0  0  0  0  0  0  0  0
   14.9988  -13.7656    5.5927 H   0  0  0  0  0  0  0  0  0  0  0  0
   13.5149   -9.8833    7.6230 H   0  0  0  0  0  0  0  0  0  0  0  0
   12.2280  -10.7255    8.1720 H   0  0  0  0  0  0  0  0  0  0  0  0
   13.1488  -12.3666    9.5904 H   0  0  0  0  0  0  0  0  0  0  0  0
   14.6172  -13.0114    9.2829 H   0  0  0  0  0  0  0  0  0  0  0  0
   14.4753  -11.4141    9.5915 H   0  0  0  0  0  0  0  0  0  0  0  0
   11.5518  -12.0227    4.9594 H   0  0  0  0  0  0  0  0  0  0  0  0
   12.7034  -12.6659    5.9220 H   0  0  0  0  0  0  0  0  0  0  0  0
   11.2406  -12.2862    6.5407 H   0  0  0  0  0  0  0  0  0  0  0  0
   14.3173  -11.6957    2.3507 H   0  0  0  0  0  0  0  0  0  0  0  0
   18.4368  -13.1237    0.4399 H   0  0  0  0  0  0  0  0  0  0  0  0
   14.8231  -11.1357    0.0739 H   0  0  0  0  0  0  0  0  0  0  0  0
   16.9014  -11.8636   -0.8760 H   0  0  0  0  0  0  0  0  0  0  0  0
  1  2  1  0  0  0  0
  2  3  2  0  0  0  0
  2  4  1  0  0  0  0
  3  5  1  0  0  0  0
  3  6  1  0  0  0  0
  4  7  2  0  0  0  0
  6  8  2  0  0  0  0
  7  9  1  0  0  0  0
  8 10  1  0  0  0  0
 10 11  1  0  0  0  0
 11 12  1  0  0  0  0
 11 13  1  0  0  0  0
 12 14  2  0  0  0  0
 12 15  1  0  0  0  0
 13 16  1  0  0  0  0
 13 17  1  0  0  0  0
 15 18  1  0  0  0  0
 16 19  1  0  0  0  0
 18 20  1  0  0  0  0
 18 21  1  0  0  0  0
 19 22  1  0  0  0  0
 20 23  2  0  0  0  0
 21 24  2  0  0  0  0
 21 25  1  0  0  0  0
 24 26  1  0  0  0  0
 25 27  2  0  0  0  0
 26 28  2  0  0  0  0
  7  8  1  0  0  0  0
 23 24  1  0  0  0  0
 27 28  1  0  0  0  0
  4 29  1  0  0  0  0
  6 30  1  0  0  0  0
 10 31  1  0  0  0  0
 10 32  1  0  0  0  0
 13 33  1  0  0  0  0
 15 34  1  0  0  0  0
 15 35  1  0  0  0  0
 16 36  1  0  0  0  0
 16 37  1  0  0  0  0
 17 38  1  0  0  0  0
 17 39  1  0  0  0  0
 17 40  1  0  0  0  0
 22 41  1  0  0  0  0
 22 42  1  0  0  0  0
 22 43  1  0  0  0  0
 25 44  1  0  0  0  0
 26 45  1  0  0  0  0
 27 46  1  0  0  0  0
 28 47  1  0  0  0  0
M  END
> <BIOSOLVEIT.HYDE_ESTIMATED_AFFINITY_LOWER_BOUNDARY [nM]>
7309165.185824

> <BIOSOLVEIT.HYDE_ESTIMATED_AFFINITY_UPPER_BOUNDARY [nM]>
726208776.416252

> <BIOSOLVEIT.HYDE_LIGAND_EFFICIENCY range: ++, +, 0, -, -->
--

> <BIOSOLVEIT.HYDE_LIGAND_LIPOPHILIC_EFFICIENCY range: ++, +, 0, -, -->
--

> <BIOSOLVEIT.INTER_CLASH range: red, yellow, green>
green

> <BIOSOLVEIT.INTRA_CLASH range: red, yellow, green>
green

> <BIOSOLVEIT.LOGP>
3.9409

> <BIOSOLVEIT.MOLECULAR WEIGHT>
425.289

> <BIOSOLVEIT.MOLECULE_CHECKSUM>
LTYuNDkzMDY7MC4yMzE4OTU=

> <BIOSOLVEIT.TORSION_QUALITY range: red, yellow, green, not rotatable>
red

> <BIOSOLVEIT.TPSA>
60.25

> <BIOSOLVEIT.SEESAR_FAVORITE>
favorite

> <smc_score>
0.938

> <QED_score>
0.538

> <distance>
0.527

> <SimilarityPheSA_1>
0.674

> <Smiles>
COCC(C)N(Cc1cc(Cl)c(Cl)cc1F)C(=O)Cn1nnc2ccccc21

> <Similarity_SkelSpheres>
0.72

> <Cluster No>
221.0

> <QueryID>
ALP-POS-87c86d55-1

> <SimilarityPheSA>
0.674

> <Postera series>
3-aminopyridine-like

> <PDB_code>
Mpro-x12143

> <Approach>
DGM_exploratory_RL

> <ID>
20210628_534

> <SimilarityPheSA_2>
0.865

> <OPTIBRIUM.logD>
3.34027

> <OPTIBRIUM.BBB category>
-

> <OPTIBRIUM.logP>
3.34027

> <OPTIBRIUM.P-gp category>
no

> <OPTIBRIUM.logS>
2.14883

> <OPTIBRIUM.HIA category>
+

> <OPTIBRIUM.PPB90 category>
high

> <OPTIBRIUM.2D6 affinity category>
medium

> <OPTIBRIUM.hERG pIC50>
6.03018

> <OPTIBRIUM.2C9 pKi>
5.271

> <OPTIBRIUM.BBB log([brain]:[blood])>
-0.489893

> <OPTIBRIUM.logS @ pH7.4>
2.14883

$$$$
Compound 1267_1_04
haSeeSAR  07122114523D 1   1.00000     0.00000     0
SeeSAR 11.0.2 hazemaj
 50 52  0  0  0  0            999 V2000
   21.2741   -6.2415    3.0946 Cl  0  0  0  0  0  0  0  0  0  0  0  0
   20.7088   -7.9277    3.1557 C   0  0  0  0  0  0  0  0  0  0  0  0
   21.6247   -8.9630    3.3011 C   0  0  0  0  0  0  0  0  0  0  0  0
   19.3480   -8.1978    3.0556 C   0  0  0  0  0  0  0  0  0  0  0  0
   23.3614   -8.5938    3.4264 Cl  0  0  0  0  0  0  0  0  0  0  0  0
   21.1992  -10.2860    3.3489 C   0  0  0  0  0  0  0  0  0  0  0  0
   18.9209   -9.5204    3.1038 C   0  0  0  0  0  0  0  0  0  0  0  0
   19.8386  -10.5545    3.2488 C   0  0  0  0  0  0  0  0  0  0  0  0
   17.6236   -9.7916    3.0111 F   0  0  0  0  0  0  0  0  0  0  0  0
   19.3536  -11.9939    3.2981 C   0  0  0  0  0  0  0  0  0  0  0  0
   18.9540  -12.3454    4.7219 C   0  0  0  0  0  0  0  0  0  0  0  0
   19.7105  -12.0813    5.6565 O   0  0  0  0  0  0  0  0  0  0  0  0
   17.7254  -12.9696    4.9705 N   0  0  0  0  0  0  0  0  0  0  0  0
   16.4710  -12.3725    4.5002 C   0  0  1  0  0  0  0  0  0  0  0  0
   17.6789  -14.2331    5.7300 C   0  0  0  0  0  0  0  0  0  0  0  0
   15.7796  -13.4374    3.6636 C   0  0  0  0  0  0  0  0  0  0  0  0
   15.5996  -11.8856    5.6501 C   0  0  0  0  0  0  0  0  0  0  0  0
   16.4250  -15.0607    5.4599 C   0  0  0  0  0  0  0  0  0  0  0  0
   15.1385  -13.4418    2.4575 N   0  0  0  0  0  0  0  0  0  0  0  0
   15.7429  -14.6920    4.1516 C   0  0  0  0  0  0  0  0  0  0  0  0
   14.8472  -10.7574    5.2291 O   0  0  0  0  0  0  0  0  0  0  0  0
   14.6616  -14.6969    2.2350 C   0  0  0  0  0  0  0  0  0  0  0  0
   14.9712  -12.2992    1.5456 C   0  0  0  0  0  0  0  0  0  0  0  0
   15.0144  -15.4314    3.2655 N   0  0  0  0  0  0  0  0  0  0  0  0
   13.5931  -11.1877    4.7208 C   0  0  0  0  0  0  0  0  0  0  0  0
   12.7638  -11.7769    5.8502 C   0  0  0  0  0  0  0  0  0  0  0  0
   12.1150  -10.7300    6.5569 O   0  0  0  0  0  0  0  0  0  0  0  0
   12.6927  -10.6011    7.8476 C   0  0  0  0  0  0  0  0  0  0  0  0
   18.6882   -7.4537    2.9506 H   0  0  0  0  0  0  0  0  0  0  0  0
   21.8591  -11.0301    3.4533 H   0  0  0  0  0  0  0  0  0  0  0  0
   20.0874  -12.6033    2.9978 H   0  0  0  0  0  0  0  0  0  0  0  0
   18.5637  -12.1004    2.6943 H   0  0  0  0  0  0  0  0  0  0  0  0
   16.6881  -11.5940    3.9112 H   0  0  0  0  0  0  0  0  0  0  0  0
   17.7113  -14.0170    6.7058 H   0  0  0  0  0  0  0  0  0  0  0  0
   18.4786  -14.7803    5.4831 H   0  0  0  0  0  0  0  0  0  0  0  0
   16.1803  -11.6295    6.4230 H   0  0  0  0  0  0  0  0  0  0  0  0
   14.9767  -12.6165    5.9290 H   0  0  0  0  0  0  0  0  0  0  0  0
   15.7787  -14.9145    6.2089 H   0  0  0  0  0  0  0  0  0  0  0  0
   16.6817  -16.0265    5.4248 H   0  0  0  0  0  0  0  0  0  0  0  0
   14.1410  -15.0023    1.4377 H   0  0  0  0  0  0  0  0  0  0  0  0
   14.4611  -12.5905    0.7363 H   0  0  0  0  0  0  0  0  0  0  0  0
   14.4687  -11.5712    2.0121 H   0  0  0  0  0  0  0  0  0  0  0  0
   15.8699  -11.9593    1.2686 H   0  0  0  0  0  0  0  0  0  0  0  0
   13.7394  -11.8829    4.0170 H   0  0  0  0  0  0  0  0  0  0  0  0
   13.1091  -10.4080    4.3235 H   0  0  0  0  0  0  0  0  0  0  0  0
   13.3610  -12.2804    6.4746 H   0  0  0  0  0  0  0  0  0  0  0  0
   12.0780  -12.3982    5.4712 H   0  0  0  0  0  0  0  0  0  0  0  0
   12.2358   -9.8639    8.3453 H   0  0  0  0  0  0  0  0  0  0  0  0
   12.5834  -11.4594    8.3490 H   0  0  0  0  0  0  0  0  0  0  0  0
   13.6658  -10.3892    7.7576 H   0  0  0  0  0  0  0  0  0  0  0  0
  1  2  1  0  0  0  0
  2  3  2  0  0  0  0
  2  4  1  0  0  0  0
  3  5  1  0  0  0  0
  3  6  1  0  0  0  0
  4  7  2  0  0  0  0
  6  8  2  0  0  0  0
  7  9  1  0  0  0  0
  8 10  1  0  0  0  0
 10 11  1  0  0  0  0
 11 12  2  0  0  0  0
 11 13  1  0  0  0  0
 13 14  1  0  0  0  0
 13 15  1  0  0  0  0
 14 16  1  0  0  0  0
 14 17  1  0  0  0  0
 15 18  1  0  0  0  0
 16 19  1  0  0  0  0
 16 20  2  0  0  0  0
 17 21  1  0  0  0  0
 19 22  1  0  0  0  0
 19 23  1  0  0  0  0
 20 24  1  0  0  0  0
 21 25  1  0  0  0  0
 25 26  1  0  0  0  0
 26 27  1  0  0  0  0
 27 28  1  0  0  0  0
  7  8  1  0  0  0  0
 18 20  1  0  0  0  0
 22 24  2  0  0  0  0
  4 29  1  0  0  0  0
  6 30  1  0  0  0  0
 10 31  1  0  0  0  0
 10 32  1  0  0  0  0
 14 33  1  0  0  0  0
 15 34  1  0  0  0  0
 15 35  1  0  0  0  0
 17 36  1  0  0  0  0
 17 37  1  0  0  0  0
 18 38  1  0  0  0  0
 18 39  1  0  0  0  0
 22 40  1  0  0  0  0
 23 41  1  0  0  0  0
 23 42  1  0  0  0  0
 23 43  1  0  0  0  0
 25 44  1  0  0  0  0
 25 45  1  0  0  0  0
 26 46  1  0  0  0  0
 26 47  1  0  0  0  0
 28 48  1  0  0  0  0
 28 49  1  0  0  0  0
 28 50  1  0  0  0  0
M  END
> <BIOSOLVEIT.HYDE_ESTIMATED_AFFINITY_LOWER_BOUNDARY [nM]>
3217504.141593

> <BIOSOLVEIT.HYDE_ESTIMATED_AFFINITY_UPPER_BOUNDARY [nM]>
319678059.857294

> <BIOSOLVEIT.HYDE_LIGAND_EFFICIENCY range: ++, +, 0, -, -->
--

> <BIOSOLVEIT.HYDE_LIGAND_LIPOPHILIC_EFFICIENCY range: ++, +, 0, -, -->
--

> <BIOSOLVEIT.INTER_CLASH range: red, yellow, green>
green

> <BIOSOLVEIT.INTRA_CLASH range: red, yellow, green>
green

> <BIOSOLVEIT.LOGP>
3.1975

> <BIOSOLVEIT.MOLECULAR WEIGHT>
430.305

> <BIOSOLVEIT.MOLECULE_CHECKSUM>
LTguNTI3MTswLjMwNDUzOQ==

> <BIOSOLVEIT.TORSION_QUALITY range: red, yellow, green, not rotatable>
red

> <BIOSOLVEIT.TPSA>
56.59

> <BIOSOLVEIT.SEESAR_FAVORITE>
favorite

> <smc_score>
0.75

> <QED_score>
0.5

> <distance>
0.761

> <SimilarityPheSA_1>
0.65

> <Smiles>
COCCOCC1c2c(ncn2C)CCN1C(=O)Cc1cc(Cl)c(Cl)cc1F

> <Similarity_SkelSpheres>
0.617

> <Cluster No>
222.0

> <QueryID>
MAT-POS-f7918075-5

> <SimilarityPheSA>
0.6496

> <Postera series>
3-aminopyridine-like

> <PDB_code>
Mpro-x11499

> <Approach>
DGM_exploratory_RL

> <ID>
20210628_537

> <SimilarityPheSA_2>
0.668

> <OPTIBRIUM.logD>
3.39079

> <OPTIBRIUM.BBB category>
-

> <OPTIBRIUM.logP>
3.39079

> <OPTIBRIUM.P-gp category>
yes

> <OPTIBRIUM.logS>
2.22686

> <OPTIBRIUM.HIA category>
+

> <OPTIBRIUM.PPB90 category>
high

> <OPTIBRIUM.2D6 affinity category>
medium

> <OPTIBRIUM.hERG pIC50>
5.61693

> <OPTIBRIUM.2C9 pKi>
5.30024

> <OPTIBRIUM.BBB log([brain]:[blood])>
-0.44715

> <OPTIBRIUM.logS @ pH7.4>
2.22686

$$$$
Compound 1267_1_09
haSeeSAR  07122114523D 1   1.00000     0.00000     0
SeeSAR 11.0.2 hazemaj
 50 52  0  0  0  0            999 V2000
   21.4467   -6.1062    2.9359 Cl  0  0  0  0  0  0  0  0  0  0  0  0
   20.8108   -7.7007    3.4047 C   0  0  0  0  0  0  0  0  0  0  0  0
   21.6103   -8.5851    4.1189 C   0  0  0  0  0  0  0  0  0  0  0  0
   19.5125   -8.0515    3.0495 C   0  0  0  0  0  0  0  0  0  0  0  0
   23.2689   -8.1152    4.5620 Cl  0  0  0  0  0  0  0  0  0  0  0  0
   21.1287   -9.8354    4.4913 C   0  0  0  0  0  0  0  0  0  0  0  0
   19.0293   -9.3014    3.4217 C   0  0  0  0  0  0  0  0  0  0  0  0
   19.8307  -10.1848    4.1356 C   0  0  0  0  0  0  0  0  0  0  0  0
   17.7904   -9.6480    3.0900 F   0  0  0  0  0  0  0  0  0  0  0  0
   19.2863  -11.5470    4.5326 C   0  0  0  0  0  0  0  0  0  0  0  0
   18.5880  -11.4410    5.8785 C   0  0  0  0  0  0  0  0  0  0  0  0
   18.8780  -10.5284    6.6522 O   0  0  0  0  0  0  0  0  0  0  0  0
   17.6147  -12.3813    6.2385 N   0  0  0  0  0  0  0  0  0  0  0  0
   16.4031  -12.6240    5.4629 C   0  0  1  0  0  0  0  0  0  0  0  0
   17.6728  -13.2232    7.4448 C   0  0  0  0  0  0  0  0  0  0  0  0
   16.1948  -14.1303    5.3474 C   0  0  0  0  0  0  0  0  0  0  0  0
   15.2781  -11.9310    6.2147 C   0  0  0  0  0  0  0  0  0  0  0  0
   17.9849  -14.6334    6.9767 C   0  0  0  0  0  0  0  0  0  0  0  0
   15.3005  -14.7943    4.5592 N   0  0  0  0  0  0  0  0  0  0  0  0
   16.8838  -15.0812    6.0276 C   0  0  0  0  0  0  0  0  0  0  0  0
   14.8217  -10.8169    5.4618 O   0  0  0  0  0  0  0  0  0  0  0  0
   15.4251  -16.1339    4.7642 C   0  0  0  0  0  0  0  0  0  0  0  0
   14.3410  -14.1717    3.6353 C   0  0  0  0  0  0  0  0  0  0  0  0
   16.3729  -16.2985    5.6555 N   0  0  0  0  0  0  0  0  0  0  0  0
   13.5727  -11.1299    4.8630 C   0  0  0  0  0  0  0  0  0  0  0  0
   12.6499  -11.7401    5.9054 C   0  0  0  0  0  0  0  0  0  0  0  0
   12.0156  -10.7041    6.6408 O   0  0  0  0  0  0  0  0  0  0  0  0
   12.5802  -10.6331    7.9418 C   0  0  0  0  0  0  0  0  0  0  0  0
   18.9365   -7.4160    2.5353 H   0  0  0  0  0  0  0  0  0  0  0  0
   21.7049  -10.4711    5.0051 H   0  0  0  0  0  0  0  0  0  0  0  0
   20.0401  -12.2009    4.5987 H   0  0  0  0  0  0  0  0  0  0  0  0
   18.6338  -11.8593    3.8422 H   0  0  0  0  0  0  0  0  0  0  0  0
   16.4984  -12.2240    4.5513 H   0  0  0  0  0  0  0  0  0  0  0  0
   16.7936  -13.2046    7.9210 H   0  0  0  0  0  0  0  0  0  0  0  0
   18.3915  -12.8968    8.0588 H   0  0  0  0  0  0  0  0  0  0  0  0
   15.6142  -11.6178    7.1030 H   0  0  0  0  0  0  0  0  0  0  0  0
   14.5235  -12.5727    6.3512 H   0  0  0  0  0  0  0  0  0  0  0  0
   18.0231  -15.2494    7.7635 H   0  0  0  0  0  0  0  0  0  0  0  0
   18.8647  -14.6444    6.5017 H   0  0  0  0  0  0  0  0  0  0  0  0
   14.8946  -16.8558    4.3196 H   0  0  0  0  0  0  0  0  0  0  0  0
   13.8052  -14.8836    3.1814 H   0  0  0  0  0  0  0  0  0  0  0  0
   13.7287  -13.5688    4.1469 H   0  0  0  0  0  0  0  0  0  0  0  0
   14.8366  -13.6391    2.9491 H   0  0  0  0  0  0  0  0  0  0  0  0
   13.7141  -11.7834    4.1195 H   0  0  0  0  0  0  0  0  0  0  0  0
   13.1589  -10.2953    4.4993 H   0  0  0  0  0  0  0  0  0  0  0  0
   13.1831  -12.3127    6.5282 H   0  0  0  0  0  0  0  0  0  0  0  0
   11.9564  -12.2987    5.4505 H   0  0  0  0  0  0  0  0  0  0  0  0
   12.1335   -9.9035    8.4596 H   0  0  0  0  0  0  0  0  0  0  0  0
   12.4458  -11.5056    8.4115 H   0  0  0  0  0  0  0  0  0  0  0  0
   13.5589  -10.4402    7.8704 H   0  0  0  0  0  0  0  0  0  0  0  0
  1  2  1  0  0  0  0
  2  3  2  0  0  0  0
  2  4  1  0  0  0  0
  3  5  1  0  0  0  0
  3  6  1  0  0  0  0
  4  7  2  0  0  0  0
  6  8  2  0  0  0  0
  7  9  1  0  0  0  0
  8 10  1  0  0  0  0
 10 11  1  0  0  0  0
 11 12  2  0  0  0  0
 11 13  1  0  0  0  0
 13 14  1  0  0  0  0
 13 15  1  0  0  0  0
 14 16  1  0  0  0  0
 14 17  1  0  0  0  0
 15 18  1  0  0  0  0
 16 19  1  0  0  0  0
 16 20  2  0  0  0  0
 17 21  1  0  0  0  0
 19 22  1  0  0  0  0
 19 23  1  0  0  0  0
 20 24  1  0  0  0  0
 21 25  1  0  0  0  0
 25 26  1  0  0  0  0
 26 27  1  0  0  0  0
 27 28  1  0  0  0  0
  7  8  1  0  0  0  0
 18 20  1  0  0  0  0
 22 24  2  0  0  0  0
  4 29  1  0  0  0  0
  6 30  1  0  0  0  0
 10 31  1  0  0  0  0
 10 32  1  0  0  0  0
 14 33  1  0  0  0  0
 15 34  1  0  0  0  0
 15 35  1  0  0  0  0
 17 36  1  0  0  0  0
 17 37  1  0  0  0  0
 18 38  1  0  0  0  0
 18 39  1  0  0  0  0
 22 40  1  0  0  0  0
 23 41  1  0  0  0  0
 23 42  1  0  0  0  0
 23 43  1  0  0  0  0
 25 44  1  0  0  0  0
 25 45  1  0  0  0  0
 26 46  1  0  0  0  0
 26 47  1  0  0  0  0
 28 48  1  0  0  0  0
 28 49  1  0  0  0  0
 28 50  1  0  0  0  0
M  END
> <BIOSOLVEIT.HYDE_ESTIMATED_AFFINITY_LOWER_BOUNDARY [nM]>
3445408711.278292

> <BIOSOLVEIT.HYDE_ESTIMATED_AFFINITY_UPPER_BOUNDARY [nM]>
342321726333.973999

> <BIOSOLVEIT.HYDE_LIGAND_EFFICIENCY range: ++, +, 0, -, -->
--

> <BIOSOLVEIT.HYDE_LIGAND_LIPOPHILIC_EFFICIENCY range: ++, +, 0, -, -->
--

> <BIOSOLVEIT.INTER_CLASH range: red, yellow, green>
green

> <BIOSOLVEIT.INTRA_CLASH range: red, yellow, green>
green

> <BIOSOLVEIT.LOGP>
3.1975

> <BIOSOLVEIT.MOLECULAR WEIGHT>
430.305

> <BIOSOLVEIT.MOLECULE_CHECKSUM>
OC43NjY1ODsw

> <BIOSOLVEIT.TORSION_QUALITY range: red, yellow, green, not rotatable>
red

> <BIOSOLVEIT.TPSA>
56.59

> <BIOSOLVEIT.SEESAR_FAVORITE>
favorite

> <smc_score>
0.75

> <QED_score>
0.5

> <distance>
0.761

> <SimilarityPheSA_1>
0.65

> <Smiles>
COCCOCC1c2c(ncn2C)CCN1C(=O)Cc1cc(Cl)c(Cl)cc1F

> <Similarity_SkelSpheres>
0.617

> <Cluster No>
222.0

> <QueryID>
MAT-POS-f7918075-5

> <SimilarityPheSA>
0.6496

> <Postera series>
3-aminopyridine-like

> <PDB_code>
Mpro-x11499

> <Approach>
DGM_exploratory_RL

> <ID>
20210628_537

> <SimilarityPheSA_2>
0.668

> <OPTIBRIUM.logD>
3.39079

> <OPTIBRIUM.BBB category>
-

> <OPTIBRIUM.logP>
3.39079

> <OPTIBRIUM.P-gp category>
yes

> <OPTIBRIUM.logS>
2.22686

> <OPTIBRIUM.HIA category>
+

> <OPTIBRIUM.PPB90 category>
high

> <OPTIBRIUM.2D6 affinity category>
medium

> <OPTIBRIUM.hERG pIC50>
5.61693

> <OPTIBRIUM.2C9 pKi>
5.30024

> <OPTIBRIUM.BBB log([brain]:[blood])>
-0.44715

> <OPTIBRIUM.logS @ pH7.4>
2.22686

$$$$
Compound 1276_1_1
haSeeSAR  07122114523D 1   1.00000     0.00000     0
SeeSAR 11.0.2 hazemaj
 53 55  0  0  0  0            999 V2000
   23.0631   -8.5028    4.7008 Cl  0  0  0  0  0  0  0  0  0  0  0  0
   21.4255   -8.7832    4.0613 C   0  0  0  0  0  0  0  0  0  0  0  0
   20.8286  -10.0324    4.2005 C   0  0  0  0  0  0  0  0  0  0  0  0
   20.7334   -7.7610    3.4205 C   0  0  0  0  0  0  0  0  0  0  0  0
   21.4912  -11.0317    4.8214 O   0  0  0  0  0  0  0  0  0  0  0  0
   19.5478  -10.2516    3.7007 C   0  0  0  0  0  0  0  0  0  0  0  0
   21.4986   -6.1642    3.2426 Cl  0  0  0  0  0  0  0  0  0  0  0  0
   19.4539   -7.9691    2.9168 C   0  0  0  0  0  0  0  0  0  0  0  0
   21.3887  -11.1842    6.2295 C   0  0  0  0  0  0  0  0  0  0  0  0
   18.8660   -9.2211    3.0616 C   0  0  0  0  0  0  0  0  0  0  0  0
   18.8947  -11.6159    3.8525 C   0  0  0  0  0  0  0  0  0  0  0  0
   17.6946  -11.6815    3.0060 N   0  0  0  0  0  0  0  0  0  0  0  0
   16.5090  -11.3907    3.5156 C   0  0  0  0  0  0  0  0  0  0  0  0
   17.8121  -12.0704    1.5933 C   0  0  0  0  0  0  0  0  0  0  0  0
   16.3975  -10.4766    4.3326 O   0  0  0  0  0  0  0  0  0  0  0  0
   15.2860  -12.1840    3.0932 C   0  0  2  0  0  0  0  0  0  0  0  0
   13.9973  -11.5893    3.6175 C   0  0  0  0  0  0  0  0  0  0  0  0
   15.2156  -13.5431    3.7634 C   0  0  0  0  0  0  0  0  0  0  0  0
   13.9681  -11.9931    5.0219 N   0  0  0  0  0  0  0  0  0  0  0  0
   14.6909  -13.2643    5.1592 C   0  0  0  0  0  0  0  0  0  0  0  0
   13.3590  -11.2837    6.0652 C   0  0  0  0  0  0  0  0  0  0  0  0
   12.2676  -10.7430    5.8868 O   0  0  0  0  0  0  0  0  0  0  0  0
   14.0460  -11.1817    7.4179 C   0  0  0  0  0  0  0  0  0  0  0  0
   13.5993  -12.2885    8.3530 C   0  0  0  0  0  0  0  0  0  0  0  0
   15.5282  -11.4799    7.3076 C   0  0  0  0  0  0  0  0  0  0  0  0
   14.6762  -12.2940    9.4175 C   0  0  0  0  0  0  0  0  0  0  0  0
   15.9447  -11.8448    8.7167 C   0  0  0  0  0  0  0  0  0  0  0  0
   18.9635   -7.2289    2.4569 H   0  0  0  0  0  0  0  0  0  0  0  0
   21.9381  -11.9672    6.5208 H   0  0  0  0  0  0  0  0  0  0  0  0
   21.7232  -10.3563    6.6797 H   0  0  0  0  0  0  0  0  0  0  0  0
   20.4324  -11.3364    6.4794 H   0  0  0  0  0  0  0  0  0  0  0  0
   17.9462   -9.3819    2.7035 H   0  0  0  0  0  0  0  0  0  0  0  0
   18.6367  -11.7574    4.8081 H   0  0  0  0  0  0  0  0  0  0  0  0
   19.5395  -12.3271    3.5723 H   0  0  0  0  0  0  0  0  0  0  0  0
   16.9065  -12.0632    1.1691 H   0  0  0  0  0  0  0  0  0  0  0  0
   18.4080  -11.4232    1.1177 H   0  0  0  0  0  0  0  0  0  0  0  0
   18.2018  -12.9894    1.5317 H   0  0  0  0  0  0  0  0  0  0  0  0
   15.2525  -12.2786    2.0982 H   0  0  0  0  0  0  0  0  0  0  0  0
   13.2091  -11.9582    3.1249 H   0  0  0  0  0  0  0  0  0  0  0  0
   14.0058  -10.5928    3.5340 H   0  0  0  0  0  0  0  0  0  0  0  0
   16.1228  -13.9618    3.8059 H   0  0  0  0  0  0  0  0  0  0  0  0
   14.5923  -14.1479    3.2677 H   0  0  0  0  0  0  0  0  0  0  0  0
   15.4444  -13.1757    5.8108 H   0  0  0  0  0  0  0  0  0  0  0  0
   14.0748  -13.9925    5.4591 H   0  0  0  0  0  0  0  0  0  0  0  0
   13.8924  -10.2833    7.8294 H   0  0  0  0  0  0  0  0  0  0  0  0
   13.5607  -13.1670    7.8769 H   0  0  0  0  0  0  0  0  0  0  0  0
   12.7040  -12.0844    8.7491 H   0  0  0  0  0  0  0  0  0  0  0  0
   16.0283  -10.6751    6.9881 H   0  0  0  0  0  0  0  0  0  0  0  0
   15.6900  -12.2431    6.6820 H   0  0  0  0  0  0  0  0  0  0  0  0
   14.7916  -13.2138    9.7926 H   0  0  0  0  0  0  0  0  0  0  0  0
   14.4416  -11.6604   10.1547 H   0  0  0  0  0  0  0  0  0  0  0  0
   16.3367  -11.0506    9.1810 H   0  0  0  0  0  0  0  0  0  0  0  0
   16.6154  -12.5863    8.7009 H   0  0  0  0  0  0  0  0  0  0  0  0
  1  2  1  0  0  0  0
  2  3  2  0  0  0  0
  2  4  1  0  0  0  0
  3  5  1  0  0  0  0
  3  6  1  0  0  0  0
  4  7  1  0  0  0  0
  4  8  2  0  0  0  0
  5  9  1  0  0  0  0
  6 10  2  0  0  0  0
  6 11  1  0  0  0  0
 11 12  1  0  0  0  0
 12 13  1  0  0  0  0
 12 14  1  0  0  0  0
 13 15  2  0  0  0  0
 13 16  1  0  0  0  0
 16 17  1  0  0  0  0
 16 18  1  0  0  0  0
 17 19  1  0  0  0  0
 18 20  1  0  0  0  0
 19 21  1  0  0  0  0
 21 22  2  0  0  0  0
 21 23  1  0  0  0  0
 23 24  1  0  0  0  0
 23 25  1  0  0  0  0
 24 26  1  0  0  0  0
 25 27  1  0  0  0  0
  8 10  1  0  0  0  0
 19 20  1  0  0  0  0
 26 27  1  0  0  0  0
  8 28  1  0  0  0  0
  9 29  1  0  0  0  0
  9 30  1  0  0  0  0
  9 31  1  0  0  0  0
 10 32  1  0  0  0  0
 11 33  1  0  0  0  0
 11 34  1  0  0  0  0
 14 35  1  0  0  0  0
 14 36  1  0  0  0  0
 14 37  1  0  0  0  0
 16 38  1  0  0  0  0
 17 39  1  0  0  0  0
 17 40  1  0  0  0  0
 18 41  1  0  0  0  0
 18 42  1  0  0  0  0
 20 43  1  0  0  0  0
 20 44  1  0  0  0  0
 23 45  1  0  0  0  0
 24 46  1  0  0  0  0
 24 47  1  0  0  0  0
 25 48  1  0  0  0  0
 25 49  1  0  0  0  0
 26 50  1  0  0  0  0
 26 51  1  0  0  0  0
 27 52  1  0  0  0  0
 27 53  1  0  0  0  0
M  END
> <BIOSOLVEIT.HYDE_ESTIMATED_AFFINITY_LOWER_BOUNDARY [nM]>
3399234693.170621

> <BIOSOLVEIT.HYDE_ESTIMATED_AFFINITY_UPPER_BOUNDARY [nM]>
337734064632.575989

> <BIOSOLVEIT.HYDE_LIGAND_EFFICIENCY range: ++, +, 0, -, -->
--

> <BIOSOLVEIT.HYDE_LIGAND_LIPOPHILIC_EFFICIENCY range: ++, +, 0, -, -->
--

> <BIOSOLVEIT.INTER_CLASH range: red, yellow, green>
green

> <BIOSOLVEIT.INTRA_CLASH range: red, yellow, green>
yellow

> <BIOSOLVEIT.LOGP>
3.9991

> <BIOSOLVEIT.MOLECULAR WEIGHT>
413.342

> <BIOSOLVEIT.MOLECULE_CHECKSUM>
OC43MzMxMzsw

> <BIOSOLVEIT.TORSION_QUALITY range: red, yellow, green, not rotatable>
green

> <BIOSOLVEIT.TPSA>
49.85

> <BIOSOLVEIT.SEESAR_FAVORITE>
favorite

> <smc_score>
0.75

> <QED_score>
0.733

> <distance>
0.774

> <SimilarityPheSA_1>
0.686

> <Smiles>
COc1c(CN(C)C(=O)C2CCN(C(=O)C3CCCC3)C2)ccc(Cl)c1Cl

> <Similarity_SkelSpheres>
0.593

> <Cluster No>
227.0

> <QueryID>
JAN-GHE-5a013bed-2

> <SimilarityPheSA>
0.686

> <Postera series>
3-aminopyridine-like

> <PDB_code>
Mpro-x10466

> <Approach>
DGM_exploratory_RL

> <ID>
20210628_546

> <SimilarityPheSA_2>
0.708

> <OPTIBRIUM.logD>
2.76803

> <OPTIBRIUM.BBB category>
-

> <OPTIBRIUM.logP>
2.76803

> <OPTIBRIUM.P-gp category>
yes

> <OPTIBRIUM.logS>
2.8689

> <OPTIBRIUM.HIA category>
+

> <OPTIBRIUM.PPB90 category>
low

> <OPTIBRIUM.2D6 affinity category>
medium

> <OPTIBRIUM.hERG pIC50>
5.06615

> <OPTIBRIUM.2C9 pKi>
4.69281

> <OPTIBRIUM.BBB log([brain]:[blood])>
-0.553951

> <OPTIBRIUM.logS @ pH7.4>
2.8689

$$$$
Compound 1276_1_3
haSeeSAR  07122114523D 1   1.00000     0.00000     0
SeeSAR 11.0.2 hazemaj
 53 55  0  0  0  0            999 V2000
   23.0677   -8.3500    4.8688 Cl  0  0  0  0  0  0  0  0  0  0  0  0
   21.4568   -8.6907    4.1919 C   0  0  0  0  0  0  0  0  0  0  0  0
   20.8760   -9.9420    4.3738 C   0  0  0  0  0  0  0  0  0  0  0  0
   20.7696   -7.7138    3.4793 C   0  0  0  0  0  0  0  0  0  0  0  0
   21.5340  -10.8976    5.0645 O   0  0  0  0  0  0  0  0  0  0  0  0
   19.6162  -10.2084    3.8447 C   0  0  0  0  0  0  0  0  0  0  0  0
   21.5142   -6.1142    3.2468 Cl  0  0  0  0  0  0  0  0  0  0  0  0
   19.5109   -7.9693    2.9457 C   0  0  0  0  0  0  0  0  0  0  0  0
   21.3915  -10.9795    6.4750 C   0  0  0  0  0  0  0  0  0  0  0  0
   18.9391   -9.2229    3.1336 C   0  0  0  0  0  0  0  0  0  0  0  0
   18.9807  -11.5750    4.0431 C   0  0  0  0  0  0  0  0  0  0  0  0
   17.8335  -11.7184    3.1351 N   0  0  0  0  0  0  0  0  0  0  0  0
   16.6156  -11.4185    3.5556 C   0  0  0  0  0  0  0  0  0  0  0  0
   18.0397  -12.1952    1.7599 C   0  0  0  0  0  0  0  0  0  0  0  0
   16.4519  -10.5101    4.3701 O   0  0  0  0  0  0  0  0  0  0  0  0
   15.4200  -12.1943    3.0338 C   0  0  2  0  0  0  0  0  0  0  0  0
   14.1014  -11.5818    3.4527 C   0  0  0  0  0  0  0  0  0  0  0  0
   15.2764  -13.5526    3.6938 C   0  0  0  0  0  0  0  0  0  0  0  0
   13.9525  -11.9859    4.8494 N   0  0  0  0  0  0  0  0  0  0  0  0
   14.6440  -13.2672    5.0428 C   0  0  0  0  0  0  0  0  0  0  0  0
   13.2706  -11.2685    5.8410 C   0  0  0  0  0  0  0  0  0  0  0  0
   12.1463  -10.8216    5.6140 O   0  0  0  0  0  0  0  0  0  0  0  0
   13.9192  -11.0421    7.1974 C   0  0  0  0  0  0  0  0  0  0  0  0
   15.3470  -11.5431    7.2107 C   0  0  0  0  0  0  0  0  0  0  0  0
   13.2664  -11.9033    8.2605 C   0  0  0  0  0  0  0  0  0  0  0  0
   15.6455  -11.7154    8.6850 C   0  0  0  0  0  0  0  0  0  0  0  0
   14.3646  -12.3296    9.2200 C   0  0  0  0  0  0  0  0  0  0  0  0
   19.0240   -7.2614    2.4341 H   0  0  0  0  0  0  0  0  0  0  0  0
   21.9432  -11.7378    6.8223 H   0  0  0  0  0  0  0  0  0  0  0  0
   21.7004  -10.1244    6.8915 H   0  0  0  0  0  0  0  0  0  0  0  0
   20.4305  -11.1339    6.7044 H   0  0  0  0  0  0  0  0  0  0  0  0
   18.0343   -9.4175    2.7546 H   0  0  0  0  0  0  0  0  0  0  0  0
   18.6699  -11.6639    4.9893 H   0  0  0  0  0  0  0  0  0  0  0  0
   19.6538  -12.2875    3.8448 H   0  0  0  0  0  0  0  0  0  0  0  0
   17.1605  -12.2330    1.2849 H   0  0  0  0  0  0  0  0  0  0  0  0
   18.6523  -11.5685    1.2781 H   0  0  0  0  0  0  0  0  0  0  0  0
   18.4467  -13.1085    1.7812 H   0  0  0  0  0  0  0  0  0  0  0  0
   15.4662  -12.2878    2.0392 H   0  0  0  0  0  0  0  0  0  0  0  0
   13.3508  -11.9393    2.8970 H   0  0  0  0  0  0  0  0  0  0  0  0
   14.1306  -10.5854    3.3719 H   0  0  0  0  0  0  0  0  0  0  0  0
   16.1712  -13.9840    3.8091 H   0  0  0  0  0  0  0  0  0  0  0  0
   14.6871  -14.1483    3.1481 H   0  0  0  0  0  0  0  0  0  0  0  0
   15.3431  -13.1896    5.7536 H   0  0  0  0  0  0  0  0  0  0  0  0
   13.9954  -13.9869    5.2904 H   0  0  0  0  0  0  0  0  0  0  0  0
   13.8808  -10.0757    7.4516 H   0  0  0  0  0  0  0  0  0  0  0  0
   15.9646  -10.8745    6.7963 H   0  0  0  0  0  0  0  0  0  0  0  0
   15.4250  -12.4142    6.7258 H   0  0  0  0  0  0  0  0  0  0  0  0
   12.8453  -12.7074    7.8407 H   0  0  0  0  0  0  0  0  0  0  0  0
   12.5688  -11.3779    8.7479 H   0  0  0  0  0  0  0  0  0  0  0  0
   15.8312  -10.8342    9.1199 H   0  0  0  0  0  0  0  0  0  0  0  0
   16.4240  -12.3270    8.8254 H   0  0  0  0  0  0  0  0  0  0  0  0
   14.4396  -13.3265    9.2422 H   0  0  0  0  0  0  0  0  0  0  0  0
   14.1737  -11.9891   10.1407 H   0  0  0  0  0  0  0  0  0  0  0  0
  1  2  1  0  0  0  0
  2  3  2  0  0  0  0
  2  4  1  0  0  0  0
  3  5  1  0  0  0  0
  3  6  1  0  0  0  0
  4  7  1  0  0  0  0
  4  8  2  0  0  0  0
  5  9  1  0  0  0  0
  6 10  2  0  0  0  0
  6 11  1  0  0  0  0
 11 12  1  0  0  0  0
 12 13  1  0  0  0  0
 12 14  1  0  0  0  0
 13 15  2  0  0  0  0
 13 16  1  0  0  0  0
 16 17  1  0  0  0  0
 16 18  1  0  0  0  0
 17 19  1  0  0  0  0
 18 20  1  0  0  0  0
 19 21  1  0  0  0  0
 21 22  2  0  0  0  0
 21 23  1  0  0  0  0
 23 24  1  0  0  0  0
 23 25  1  0  0  0  0
 24 26  1  0  0  0  0
 25 27  1  0  0  0  0
  8 10  1  0  0  0  0
 19 20  1  0  0  0  0
 26 27  1  0  0  0  0
  8 28  1  0  0  0  0
  9 29  1  0  0  0  0
  9 30  1  0  0  0  0
  9 31  1  0  0  0  0
 10 32  1  0  0  0  0
 11 33  1  0  0  0  0
 11 34  1  0  0  0  0
 14 35  1  0  0  0  0
 14 36  1  0  0  0  0
 14 37  1  0  0  0  0
 16 38  1  0  0  0  0
 17 39  1  0  0  0  0
 17 40  1  0  0  0  0
 18 41  1  0  0  0  0
 18 42  1  0  0  0  0
 20 43  1  0  0  0  0
 20 44  1  0  0  0  0
 23 45  1  0  0  0  0
 24 46  1  0  0  0  0
 24 47  1  0  0  0  0
 25 48  1  0  0  0  0
 25 49  1  0  0  0  0
 26 50  1  0  0  0  0
 26 51  1  0  0  0  0
 27 52  1  0  0  0  0
 27 53  1  0  0  0  0
M  END
> <BIOSOLVEIT.HYDE_ESTIMATED_AFFINITY_LOWER_BOUNDARY [nM]>
654725059.675243

> <BIOSOLVEIT.HYDE_ESTIMATED_AFFINITY_UPPER_BOUNDARY [nM]>
65050805719.646843

> <BIOSOLVEIT.HYDE_LIGAND_EFFICIENCY range: ++, +, 0, -, -->
--

> <BIOSOLVEIT.HYDE_LIGAND_LIPOPHILIC_EFFICIENCY range: ++, +, 0, -, -->
--

> <BIOSOLVEIT.INTER_CLASH range: red, yellow, green>
green

> <BIOSOLVEIT.INTRA_CLASH range: red, yellow, green>
red

> <BIOSOLVEIT.LOGP>
3.9991

> <BIOSOLVEIT.MOLECULAR WEIGHT>
413.342

> <BIOSOLVEIT.MOLECULE_CHECKSUM>
NC42NTAwNjsw

> <BIOSOLVEIT.TORSION_QUALITY range: red, yellow, green, not rotatable>
yellow

> <BIOSOLVEIT.TPSA>
49.85

> <BIOSOLVEIT.SEESAR_FAVORITE>
favorite

> <smc_score>
0.75

> <QED_score>
0.733

> <distance>
0.774

> <SimilarityPheSA_1>
0.686

> <Smiles>
COc1c(CN(C)C(=O)C2CCN(C(=O)C3CCCC3)C2)ccc(Cl)c1Cl

> <Similarity_SkelSpheres>
0.593

> <Cluster No>
227.0

> <QueryID>
JAN-GHE-5a013bed-2

> <SimilarityPheSA>
0.686

> <Postera series>
3-aminopyridine-like

> <PDB_code>
Mpro-x10466

> <Approach>
DGM_exploratory_RL

> <ID>
20210628_546

> <SimilarityPheSA_2>
0.708

> <OPTIBRIUM.logD>
2.76803

> <OPTIBRIUM.BBB category>
-

> <OPTIBRIUM.logP>
2.76803

> <OPTIBRIUM.P-gp category>
yes

> <OPTIBRIUM.logS>
2.8689

> <OPTIBRIUM.HIA category>
+

> <OPTIBRIUM.PPB90 category>
low

> <OPTIBRIUM.2D6 affinity category>
medium

> <OPTIBRIUM.hERG pIC50>
5.06615

> <OPTIBRIUM.2C9 pKi>
4.69281

> <OPTIBRIUM.BBB log([brain]:[blood])>
-0.553951

> <OPTIBRIUM.logS @ pH7.4>
2.8689

$$$$
Compound 1276_1_4
haSeeSAR  07122114523D 1   1.00000     0.00000     0
SeeSAR 11.0.2 hazemaj
 53 55  0  0  0  0            999 V2000
   23.1554   -8.3509    4.6506 Cl  0  0  0  0  0  0  0  0  0  0  0  0
   21.5129   -8.6157    4.0170 C   0  0  0  0  0  0  0  0  0  0  0  0
   20.9285   -9.8755    4.1036 C   0  0  0  0  0  0  0  0  0  0  0  0
   20.8047   -7.5708    3.4332 C   0  0  0  0  0  0  0  0  0  0  0  0
   21.6069  -10.8969    4.6690 O   0  0  0  0  0  0  0  0  0  0  0  0
   19.6439  -10.0825    3.6084 C   0  0  0  0  0  0  0  0  0  0  0  0
   21.5539   -5.9604    3.3226 Cl  0  0  0  0  0  0  0  0  0  0  0  0
   19.5212   -7.7665    2.9346 C   0  0  0  0  0  0  0  0  0  0  0  0
   21.5157  -11.1216    6.0681 C   0  0  0  0  0  0  0  0  0  0  0  0
   18.9458   -9.0293    3.0265 C   0  0  0  0  0  0  0  0  0  0  0  0
   19.0044  -11.4584    3.7027 C   0  0  0  0  0  0  0  0  0  0  0  0
   17.8415  -11.5208    2.8056 N   0  0  0  0  0  0  0  0  0  0  0  0
   16.6278  -11.2904    3.2788 C   0  0  0  0  0  0  0  0  0  0  0  0
   18.0274  -11.8392    1.3826 C   0  0  0  0  0  0  0  0  0  0  0  0
   16.4610  -10.4493    4.1621 O   0  0  0  0  0  0  0  0  0  0  0  0
   15.4410  -12.0630    2.7328 C   0  0  2  0  0  0  0  0  0  0  0  0
   14.1167  -11.5085    3.2102 C   0  0  0  0  0  0  0  0  0  0  0  0
   15.3416  -13.4609    3.3134 C   0  0  0  0  0  0  0  0  0  0  0  0
   14.0035  -11.9977    4.5829 N   0  0  0  0  0  0  0  0  0  0  0  0
   14.7282  -13.2710    4.6878 C   0  0  0  0  0  0  0  0  0  0  0  0
   13.3239  -11.3569    5.6270 C   0  0  0  0  0  0  0  0  0  0  0  0
   12.1746  -10.9507    5.4554 O   0  0  0  0  0  0  0  0  0  0  0  0
   14.0059  -11.1632    6.9722 C   0  0  0  0  0  0  0  0  0  0  0  0
   12.9776  -10.9022    8.0562 C   0  0  0  0  0  0  0  0  0  0  0  0
   14.6525  -12.4549    7.4228 C   0  0  0  0  0  0  0  0  0  0  0  0
   13.5275  -11.5590    9.3071 C   0  0  0  0  0  0  0  0  0  0  0  0
   14.8507  -12.1834    8.9003 C   0  0  0  0  0  0  0  0  0  0  0  0
   19.0191   -7.0099    2.5158 H   0  0  0  0  0  0  0  0  0  0  0  0
   22.0762  -11.9118    6.3160 H   0  0  0  0  0  0  0  0  0  0  0  0
   21.8436  -10.3136    6.5576 H   0  0  0  0  0  0  0  0  0  0  0  0
   20.5630  -11.2977    6.3160 H   0  0  0  0  0  0  0  0  0  0  0  0
   18.0233   -9.1814    2.6716 H   0  0  0  0  0  0  0  0  0  0  0  0
   18.7089  -11.6248    4.6434 H   0  0  0  0  0  0  0  0  0  0  0  0
   19.6702  -12.1545    3.4342 H   0  0  0  0  0  0  0  0  0  0  0  0
   17.1395  -11.8397    0.9224 H   0  0  0  0  0  0  0  0  0  0  0  0
   18.6204  -11.1526    0.9619 H   0  0  0  0  0  0  0  0  0  0  0  0
   18.4486  -12.7420    1.2952 H   0  0  0  0  0  0  0  0  0  0  0  0
   15.4706  -12.0966    1.7338 H   0  0  0  0  0  0  0  0  0  0  0  0
   13.3643  -11.8509    2.6475 H   0  0  0  0  0  0  0  0  0  0  0  0
   14.1211  -10.5087    3.1882 H   0  0  0  0  0  0  0  0  0  0  0  0
   16.2482  -13.8764    3.3874 H   0  0  0  0  0  0  0  0  0  0  0  0
   14.7561  -14.0375    2.7437 H   0  0  0  0  0  0  0  0  0  0  0  0
   15.4386  -13.2184    5.3897 H   0  0  0  0  0  0  0  0  0  0  0  0
   14.1013  -14.0196    4.9035 H   0  0  0  0  0  0  0  0  0  0  0  0
   14.6770  -10.4230    6.9299 H   0  0  0  0  0  0  0  0  0  0  0  0
   12.0978  -11.3070    7.8073 H   0  0  0  0  0  0  0  0  0  0  0  0
   12.8635   -9.9191    8.1996 H   0  0  0  0  0  0  0  0  0  0  0  0
   15.5244  -12.6101    6.9583 H   0  0  0  0  0  0  0  0  0  0  0  0
   14.0502  -13.2387    7.2716 H   0  0  0  0  0  0  0  0  0  0  0  0
   12.8976  -12.2623    9.6365 H   0  0  0  0  0  0  0  0  0  0  0  0
   13.6704  -10.8770   10.0242 H   0  0  0  0  0  0  0  0  0  0  0  0
   15.6097  -11.5501    9.0517 H   0  0  0  0  0  0  0  0  0  0  0  0
   15.0188  -13.0313    9.4032 H   0  0  0  0  0  0  0  0  0  0  0  0
  1  2  1  0  0  0  0
  2  3  2  0  0  0  0
  2  4  1  0  0  0  0
  3  5  1  0  0  0  0
  3  6  1  0  0  0  0
  4  7  1  0  0  0  0
  4  8  2  0  0  0  0
  5  9  1  0  0  0  0
  6 10  2  0  0  0  0
  6 11  1  0  0  0  0
 11 12  1  0  0  0  0
 12 13  1  0  0  0  0
 12 14  1  0  0  0  0
 13 15  2  0  0  0  0
 13 16  1  0  0  0  0
 16 17  1  0  0  0  0
 16 18  1  0  0  0  0
 17 19  1  0  0  0  0
 18 20  1  0  0  0  0
 19 21  1  0  0  0  0
 21 22  2  0  0  0  0
 21 23  1  0  0  0  0
 23 24  1  0  0  0  0
 23 25  1  0  0  0  0
 24 26  1  0  0  0  0
 25 27  1  0  0  0  0
  8 10  1  0  0  0  0
 19 20  1  0  0  0  0
 26 27  1  0  0  0  0
  8 28  1  0  0  0  0
  9 29  1  0  0  0  0
  9 30  1  0  0  0  0
  9 31  1  0  0  0  0
 10 32  1  0  0  0  0
 11 33  1  0  0  0  0
 11 34  1  0  0  0  0
 14 35  1  0  0  0  0
 14 36  1  0  0  0  0
 14 37  1  0  0  0  0
 16 38  1  0  0  0  0
 17 39  1  0  0  0  0
 17 40  1  0  0  0  0
 18 41  1  0  0  0  0
 18 42  1  0  0  0  0
 20 43  1  0  0  0  0
 20 44  1  0  0  0  0
 23 45  1  0  0  0  0
 24 46  1  0  0  0  0
 24 47  1  0  0  0  0
 25 48  1  0  0  0  0
 25 49  1  0  0  0  0
 26 50  1  0  0  0  0
 26 51  1  0  0  0  0
 27 52  1  0  0  0  0
 27 53  1  0  0  0  0
M  END
> <BIOSOLVEIT.HYDE_ESTIMATED_AFFINITY_LOWER_BOUNDARY [nM]>
786973085.260353

> <BIOSOLVEIT.HYDE_ESTIMATED_AFFINITY_UPPER_BOUNDARY [nM]>
78190428973.736267

> <BIOSOLVEIT.HYDE_LIGAND_EFFICIENCY range: ++, +, 0, -, -->
--

> <BIOSOLVEIT.HYDE_LIGAND_LIPOPHILIC_EFFICIENCY range: ++, +, 0, -, -->
--

> <BIOSOLVEIT.INTER_CLASH range: red, yellow, green>
green

> <BIOSOLVEIT.INTRA_CLASH range: red, yellow, green>
red

> <BIOSOLVEIT.LOGP>
3.9991

> <BIOSOLVEIT.MOLECULAR WEIGHT>
413.342

> <BIOSOLVEIT.MOLECULE_CHECKSUM>
NS4xMDYxNDsw

> <BIOSOLVEIT.TORSION_QUALITY range: red, yellow, green, not rotatable>
yellow

> <BIOSOLVEIT.TPSA>
49.85

> <BIOSOLVEIT.SEESAR_FAVORITE>
favorite

> <smc_score>
0.75

> <QED_score>
0.733

> <distance>
0.774

> <SimilarityPheSA_1>
0.686

> <Smiles>
COc1c(CN(C)C(=O)C2CCN(C(=O)C3CCCC3)C2)ccc(Cl)c1Cl

> <Similarity_SkelSpheres>
0.593

> <Cluster No>
227.0

> <QueryID>
JAN-GHE-5a013bed-2

> <SimilarityPheSA>
0.686

> <Postera series>
3-aminopyridine-like

> <PDB_code>
Mpro-x10466

> <Approach>
DGM_exploratory_RL

> <ID>
20210628_546

> <SimilarityPheSA_2>
0.708

> <OPTIBRIUM.logD>
2.76803

> <OPTIBRIUM.BBB category>
-

> <OPTIBRIUM.logP>
2.76803

> <OPTIBRIUM.P-gp category>
yes

> <OPTIBRIUM.logS>
2.8689

> <OPTIBRIUM.HIA category>
+

> <OPTIBRIUM.PPB90 category>
low

> <OPTIBRIUM.2D6 affinity category>
medium

> <OPTIBRIUM.hERG pIC50>
5.06615

> <OPTIBRIUM.2C9 pKi>
4.69281

> <OPTIBRIUM.BBB log([brain]:[blood])>
-0.553951

> <OPTIBRIUM.logS @ pH7.4>
2.8689

$$$$
Compound 1279_1_2
haSeeSAR  07122114523D 1   1.00000     0.00000     0
SeeSAR 11.0.2 hazemaj
 58 61  0  0  0  0            999 V2000
   23.3023   -8.3292    3.9950 Cl  0  0  0  0  0  0  0  0  0  0  0  0
   21.5902   -8.6882    3.6661 C   0  0  0  0  0  0  0  0  0  0  0  0
   21.0953   -9.9744    3.8565 C   0  0  0  0  0  0  0  0  0  0  0  0
   20.7421   -7.6812    3.2158 C   0  0  0  0  0  0  0  0  0  0  0  0
   21.9144  -10.9552    4.2927 O   0  0  0  0  0  0  0  0  0  0  0  0
   19.7554  -10.2441    3.5959 C   0  0  0  0  0  0  0  0  0  0  0  0
   21.3817   -6.0379    2.9733 Cl  0  0  0  0  0  0  0  0  0  0  0  0
   19.4019   -7.9484    2.9557 C   0  0  0  0  0  0  0  0  0  0  0  0
   22.4140  -10.9244    5.6215 C   0  0  0  0  0  0  0  0  0  0  0  0
   18.9096   -9.2354    3.1461 C   0  0  0  0  0  0  0  0  0  0  0  0
   19.2083  -11.6476    3.8019 C   0  0  0  0  0  0  0  0  0  0  0  0
   18.2611  -11.6441    4.9261 N   0  0  0  0  0  0  0  0  0  0  0  0
   16.9868  -11.3572    4.7167 C   0  0  0  0  0  0  0  0  0  0  0  0
   18.7301  -11.9594    6.2832 C   0  0  0  0  0  0  0  0  0  0  0  0
   16.5901  -10.1975    4.8309 O   0  0  0  0  0  0  0  0  0  0  0  0
   16.0110  -12.4613    4.3343 C   0  0  1  0  0  0  0  0  0  0  0  0
   18.5365  -10.7459    7.1817 C   0  0  1  0  0  0  0  0  0  0  0  0
   15.1468  -12.8407    5.5187 C   0  0  0  0  0  0  0  0  0  0  0  0
   15.0144  -11.9557    3.3044 C   0  0  0  0  0  0  0  0  0  0  0  0
   18.6660  -11.1895    8.6277 C   0  0  0  0  0  0  0  0  0  0  0  0
   19.6534   -9.7392    7.0096 C   0  0  0  0  0  0  0  0  0  0  0  0
   14.0894  -11.8312    5.4971 N   0  0  0  0  0  0  0  0  0  0  0  0
   13.7939  -11.5139    4.1016 C   0  0  0  0  0  0  0  0  0  0  0  0
   19.7532  -10.4478    9.1563 O   0  0  0  0  0  0  0  0  0  0  0  0
   20.6301  -10.1512    8.0838 C   0  0  0  0  0  0  0  0  0  0  0  0
   13.4661  -11.2741    6.6183 C   0  0  0  0  0  0  0  0  0  0  0  0
   12.5239  -10.4948    6.4753 O   0  0  0  0  0  0  0  0  0  0  0  0
   13.9303  -11.6148    7.9514 C   0  0  0  0  0  0  0  0  0  0  0  0
   13.1775  -11.9816    8.9743 O   0  0  0  0  0  0  0  0  0  0  0  0
   15.2405  -11.6045    8.3272 C   0  0  0  0  0  0  0  0  0  0  0  0
   13.9476  -12.2124   10.0283 C   0  0  0  0  0  0  0  0  0  0  0  0
   15.2484  -11.9971    9.6854 C   0  0  0  0  0  0  0  0  0  0  0  0
   18.7966   -7.2202    2.6340 H   0  0  0  0  0  0  0  0  0  0  0  0
   23.0002  -11.7198    5.7758 H   0  0  0  0  0  0  0  0  0  0  0  0
   22.9443  -10.0878    5.7589 H   0  0  0  0  0  0  0  0  0  0  0  0
   21.6493  -10.9440    6.2657 H   0  0  0  0  0  0  0  0  0  0  0  0
   17.9477   -9.4354    2.9597 H   0  0  0  0  0  0  0  0  0  0  0  0
   19.9622  -12.2730    4.0031 H   0  0  0  0  0  0  0  0  0  0  0  0
   18.7389  -11.9477    2.9715 H   0  0  0  0  0  0  0  0  0  0  0  0
   19.7001  -12.2005    6.2531 H   0  0  0  0  0  0  0  0  0  0  0  0
   18.2062  -12.7300    6.6463 H   0  0  0  0  0  0  0  0  0  0  0  0
   16.5019  -13.2601    3.9865 H   0  0  0  0  0  0  0  0  0  0  0  0
   17.6462  -10.3208    7.0184 H   0  0  0  0  0  0  0  0  0  0  0  0
   15.6676  -12.7965    6.3713 H   0  0  0  0  0  0  0  0  0  0  0  0
   14.7682  -13.7593    5.4067 H   0  0  0  0  0  0  0  0  0  0  0  0
   14.7697  -12.6863    2.6670 H   0  0  0  0  0  0  0  0  0  0  0  0
   15.3978  -11.1845    2.7964 H   0  0  0  0  0  0  0  0  0  0  0  0
   18.8554  -12.1701    8.6767 H   0  0  0  0  0  0  0  0  0  0  0  0
   17.8267  -10.9865    9.1319 H   0  0  0  0  0  0  0  0  0  0  0  0
   19.3253   -8.8062    7.1576 H   0  0  0  0  0  0  0  0  0  0  0  0
   20.0651   -9.8076    6.1008 H   0  0  0  0  0  0  0  0  0  0  0  0
   12.9812  -12.0104    3.7968 H   0  0  0  0  0  0  0  0  0  0  0  0
   13.6447  -10.5311    3.9926 H   0  0  0  0  0  0  0  0  0  0  0  0
   21.2544   -9.4055    8.3167 H   0  0  0  0  0  0  0  0  0  0  0  0
   21.1584  -10.9549    7.8097 H   0  0  0  0  0  0  0  0  0  0  0  0
   16.0303  -11.3688    7.7610 H   0  0  0  0  0  0  0  0  0  0  0  0
   13.6253  -12.4987   10.9306 H   0  0  0  0  0  0  0  0  0  0  0  0
   16.0489  -12.0968   10.2763 H   0  0  0  0  0  0  0  0  0  0  0  0
  1  2  1  0  0  0  0
  2  3  2  0  0  0  0
  2  4  1  0  0  0  0
  3  5  1  0  0  0  0
  3  6  1  0  0  0  0
  4  7  1  0  0  0  0
  4  8  2  0  0  0  0
  5  9  1  0  0  0  0
  6 10  2  0  0  0  0
  6 11  1  0  0  0  0
 11 12  1  0  0  0  0
 12 13  1  0  0  0  0
 12 14  1  0  0  0  0
 13 15  2  0  0  0  0
 13 16  1  0  0  0  0
 14 17  1  0  0  0  0
 16 18  1  0  0  0  0
 16 19  1  0  0  0  0
 17 20  1  0  0  0  0
 17 21  1  0  0  0  0
 18 22  1  0  0  0  0
 19 23  1  0  0  0  0
 20 24  1  0  0  0  0
 21 25  1  0  0  0  0
 22 26  1  0  0  0  0
 26 27  2  0  0  0  0
 26 28  1  0  0  0  0
 28 29  1  0  0  0  0
 28 30  2  0  0  0  0
 29 31  1  0  0  0  0
 30 32  1  0  0  0  0
  8 10  1  0  0  0  0
 22 23  1  0  0  0  0
 24 25  1  0  0  0  0
 31 32  2  0  0  0  0
  8 33  1  0  0  0  0
  9 34  1  0  0  0  0
  9 35  1  0  0  0  0
  9 36  1  0  0  0  0
 10 37  1  0  0  0  0
 11 38  1  0  0  0  0
 11 39  1  0  0  0  0
 14 40  1  0  0  0  0
 14 41  1  0  0  0  0
 16 42  1  0  0  0  0
 17 43  1  0  0  0  0
 18 44  1  0  0  0  0
 18 45  1  0  0  0  0
 19 46  1  0  0  0  0
 19 47  1  0  0  0  0
 20 48  1  0  0  0  0
 20 49  1  0  0  0  0
 21 50  1  0  0  0  0
 21 51  1  0  0  0  0
 23 52  1  0  0  0  0
 23 53  1  0  0  0  0
 25 54  1  0  0  0  0
 25 55  1  0  0  0  0
 30 56  1  0  0  0  0
 31 57  1  0  0  0  0
 32 58  1  0  0  0  0
M  END
> <BIOSOLVEIT.HYDE_ESTIMATED_AFFINITY_LOWER_BOUNDARY [nM]>
964210468.188069

> <BIOSOLVEIT.HYDE_ESTIMATED_AFFINITY_UPPER_BOUNDARY [nM]>
95800010877.945633

> <BIOSOLVEIT.HYDE_LIGAND_EFFICIENCY range: ++, +, 0, -, -->
--

> <BIOSOLVEIT.HYDE_LIGAND_LIPOPHILIC_EFFICIENCY range: ++, +, 0, -, -->
--

> <BIOSOLVEIT.INTER_CLASH range: red, yellow, green>
green

> <BIOSOLVEIT.INTRA_CLASH range: red, yellow, green>
green

> <BIOSOLVEIT.LOGP>
4.1224

> <BIOSOLVEIT.MOLECULAR WEIGHT>
481.373

> <BIOSOLVEIT.MOLECULE_CHECKSUM>
NS42MDk2NTsw

> <BIOSOLVEIT.TORSION_QUALITY range: red, yellow, green, not rotatable>
yellow

> <BIOSOLVEIT.TPSA>
72.22

> <BIOSOLVEIT.SEESAR_FAVORITE>
favorite

> <smc_score>
0.75

> <QED_score>
0.595

> <distance>
0.719

> <SimilarityPheSA_1>
0.703

> <Smiles>
COc1c(CN(CC2CCOC2)C(=O)C2CCN(C(=O)c3ccco3)C2)ccc(Cl)c1Cl

> <Similarity_SkelSpheres>
0.612

> <Cluster No>
228.0

> <QueryID>
PET-UNK-1901c25b-1

> <SimilarityPheSA>
0.703

> <Postera series>
3-aminopyridine-like

> <PDB_code>
Mpro-x11790

> <Approach>
DGM_exploratory_RL

> <ID>
20210628_549

> <SimilarityPheSA_2>
0.639

> <OPTIBRIUM.logD>
2.61709

> <OPTIBRIUM.BBB category>
-

> <OPTIBRIUM.logP>
2.61709

> <OPTIBRIUM.P-gp category>
yes

> <OPTIBRIUM.logS>
2.10486

> <OPTIBRIUM.HIA category>
+

> <OPTIBRIUM.PPB90 category>
high

> <OPTIBRIUM.2D6 affinity category>
medium

> <OPTIBRIUM.hERG pIC50>
5.26618

> <OPTIBRIUM.2C9 pKi>
5.47131

> <OPTIBRIUM.BBB log([brain]:[blood])>
-0.666259

> <OPTIBRIUM.logS @ pH7.4>
2.10486

$$$$
Compound 1380_1_1
haSeeSAR  07122114523D 1   1.00000     0.00000     0
SeeSAR 11.0.2 hazemaj
 39 41  0  0  0  0            999 V2000
   19.3323   -6.9756    2.4279 Cl  0  0  0  0  0  0  0  0  0  0  0  0
   20.0156   -8.2899    3.4156 C   0  0  0  0  0  0  0  0  0  0  0  0
   21.3105   -8.1858    3.9119 C   0  0  0  0  0  0  0  0  0  0  0  0
   19.2436   -9.4142    3.6849 C   0  0  0  0  0  0  0  0  0  0  0  0
   22.2785   -6.7363    3.5516 Cl  0  0  0  0  0  0  0  0  0  0  0  0
   21.8538   -9.2063    4.6862 C   0  0  0  0  0  0  0  0  0  0  0  0
   19.7917  -10.4310    4.4587 C   0  0  0  0  0  0  0  0  0  0  0  0
   21.0862  -10.3338    4.9577 C   0  0  0  0  0  0  0  0  0  0  0  0
   18.9620  -11.6671    4.7635 C   0  0  0  0  0  0  0  0  0  0  0  0
   17.9205  -11.8232    3.7380 N   0  0  0  0  0  0  0  0  0  0  0  0
   16.7728  -11.1757    3.8567 C   0  0  0  0  0  0  0  0  0  0  0  0
   16.5773  -10.4424    4.8258 O   0  0  0  0  0  0  0  0  0  0  0  0
   15.6958  -11.3372    2.7963 C   0  0  0  0  0  0  0  0  0  0  0  0
   14.5045  -12.5900    3.3324 S   0  0  0  0  0  0  0  0  0  0  0  0
   13.7805  -11.7271    4.6589 C   0  0  0  0  0  0  0  0  0  0  0  0
   13.0474  -10.6431    4.5649 N   0  0  0  0  0  0  0  0  0  0  0  0
   13.8766  -12.0589    5.9731 N   0  0  0  0  0  0  0  0  0  0  0  0
   12.6715  -10.2686    5.7674 N   0  0  0  0  0  0  0  0  0  0  0  0
   13.1631  -11.1159    6.6366 C   0  0  0  0  0  0  0  0  0  0  0  0
   14.5982  -13.1981    6.5527 C   0  0  0  0  0  0  0  0  0  0  0  0
   12.9725  -11.0608    8.1449 C   0  0  0  0  0  0  0  0  0  0  0  0
   15.7989  -12.7510    7.3354 C   0  0  0  0  0  0  0  0  0  0  0  0
   15.9732  -13.3486    5.9684 C   0  0  0  0  0  0  0  0  0  0  0  0
   18.3122   -9.4900    3.3290 H   0  0  0  0  0  0  0  0  0  0  0  0
   22.7849   -9.1299    5.0430 H   0  0  0  0  0  0  0  0  0  0  0  0
   21.4652  -11.0749    5.5120 H   0  0  0  0  0  0  0  0  0  0  0  0
   18.5334  -11.5676    5.6615 H   0  0  0  0  0  0  0  0  0  0  0  0
   19.5532  -12.4735    4.7638 H   0  0  0  0  0  0  0  0  0  0  0  0
   18.0794  -12.4190    2.9507 H   0  0  0  0  0  0  0  0  0  0  0  0
   16.1161  -11.6238    1.9353 H   0  0  0  0  0  0  0  0  0  0  0  0
   15.2254  -10.4650    2.6635 H   0  0  0  0  0  0  0  0  0  0  0  0
   14.0915  -14.0099    6.8430 H   0  0  0  0  0  0  0  0  0  0  0  0
   12.4070  -10.2704    8.3807 H   0  0  0  0  0  0  0  0  0  0  0  0
   12.5213  -11.8978    8.4547 H   0  0  0  0  0  0  0  0  0  0  0  0
   13.8637  -10.9779    8.5908 H   0  0  0  0  0  0  0  0  0  0  0  0
   16.0868  -13.2624    8.1451 H   0  0  0  0  0  0  0  0  0  0  0  0
   15.9669  -11.7758    7.4800 H   0  0  0  0  0  0  0  0  0  0  0  0
   16.2572  -12.7713    5.2027 H   0  0  0  0  0  0  0  0  0  0  0  0
   16.3771  -14.2579    5.8678 H   0  0  0  0  0  0  0  0  0  0  0  0
  1  2  1  0  0  0  0
  2  3  2  0  0  0  0
  2  4  1  0  0  0  0
  3  5  1  0  0  0  0
  3  6  1  0  0  0  0
  4  7  2  0  0  0  0
  6  8  2  0  0  0  0
  7  9  1  0  0  0  0
  9 10  1  0  0  0  0
 10 11  1  0  0  0  0
 11 12  2  0  0  0  0
 11 13  1  0  0  0  0
 13 14  1  0  0  0  0
 14 15  1  0  0  0  0
 15 16  2  0  0  0  0
 15 17  1  0  0  0  0
 16 18  1  0  0  0  0
 17 19  1  0  0  0  0
 17 20  1  0  0  0  0
 19 21  1  0  0  0  0
 20 22  1  0  0  0  0
 20 23  1  0  0  0  0
  7  8  1  0  0  0  0
 18 19  2  0  0  0  0
 22 23  1  0  0  0  0
  4 24  1  0  0  0  0
  6 25  1  0  0  0  0
  8 26  1  0  0  0  0
  9 27  1  0  0  0  0
  9 28  1  0  0  0  0
 10 29  1  0  0  0  0
 13 30  1  0  0  0  0
 13 31  1  0  0  0  0
 20 32  1  0  0  0  0
 21 33  1  0  0  0  0
 21 34  1  0  0  0  0
 21 35  1  0  0  0  0
 22 36  1  0  0  0  0
 22 37  1  0  0  0  0
 23 38  1  0  0  0  0
 23 39  1  0  0  0  0
M  END
> <BIOSOLVEIT.HYDE_ESTIMATED_AFFINITY_LOWER_BOUNDARY [nM]>
1110434534.583622

> <BIOSOLVEIT.HYDE_ESTIMATED_AFFINITY_UPPER_BOUNDARY [nM]>
110328236419.445389

> <BIOSOLVEIT.HYDE_LIGAND_EFFICIENCY range: ++, +, 0, -, -->
--

> <BIOSOLVEIT.HYDE_LIGAND_LIPOPHILIC_EFFICIENCY range: ++, +, 0, -, -->
--

> <BIOSOLVEIT.INTER_CLASH range: red, yellow, green>
green

> <BIOSOLVEIT.INTRA_CLASH range: red, yellow, green>
yellow

> <BIOSOLVEIT.LOGP>
3.63672

> <BIOSOLVEIT.MOLECULAR WEIGHT>
371.289

> <BIOSOLVEIT.MOLECULE_CHECKSUM>
NS45NTk2Nzsw

> <BIOSOLVEIT.TORSION_QUALITY range: red, yellow, green, not rotatable>
green

> <BIOSOLVEIT.TPSA>
59.81

> <BIOSOLVEIT.SEESAR_FAVORITE>
favorite

> <smc_score>
0.688

> <QED_score>
0.788

> <distance>
0.672

> <SimilarityPheSA_1>
0.681

> <Smiles>
Cc1nnc(SCC(=O)NCc2ccc(Cl)c(Cl)c2)n1C1CC1

> <Similarity_SkelSpheres>
0.621

> <Cluster No>
280.0

> <QueryID>
JAN-GHE-5a013bed-2

> <SimilarityPheSA>
0.6812

> <Postera series>
3-aminopyridine-like

> <PDB_code>
Mpro-x10466

> <Approach>
DGM_exploratory_RL

> <ID>
20210628_650

> <SimilarityPheSA_2>
0.728

> <OPTIBRIUM.logD>
3.22421

> <OPTIBRIUM.BBB category>
-

> <OPTIBRIUM.logP>
3.22421

> <OPTIBRIUM.P-gp category>
no

> <OPTIBRIUM.logS>
1.87815

> <OPTIBRIUM.HIA category>
+

> <OPTIBRIUM.PPB90 category>
high

> <OPTIBRIUM.2D6 affinity category>
high

> <OPTIBRIUM.hERG pIC50>
4.58854

> <OPTIBRIUM.2C9 pKi>
5.14433

> <OPTIBRIUM.BBB log([brain]:[blood])>
-0.169412

> <OPTIBRIUM.logS @ pH7.4>
1.87815

$$$$
Compound 1397_1_05
haSeeSAR  07122114523D 1   1.00000     0.00000     0
SeeSAR 11.0.2 hazemaj
 51 53  0  0  0  0            999 V2000
   24.3374   -9.0009    3.2965 Cl  0  0  0  0  0  0  0  0  0  0  0  0
   22.8657   -8.9844    4.2981 C   0  0  0  0  0  0  0  0  0  0  0  0
   22.9506   -8.7832    5.6725 C   0  0  0  0  0  0  0  0  0  0  0  0
   21.6199   -9.1728    3.7075 C   0  0  0  0  0  0  0  0  0  0  0  0
   24.5477   -8.5417    6.4204 Cl  0  0  0  0  0  0  0  0  0  0  0  0
   21.8060   -8.7688    6.4630 C   0  0  0  0  0  0  0  0  0  0  0  0
   20.4696   -9.1600    4.4907 C   0  0  0  0  0  0  0  0  0  0  0  0
   21.5155   -9.3932    2.2065 C   0  0  0  0  0  0  0  0  0  0  0  0
   20.5657   -8.9586    5.8634 C   0  0  0  0  0  0  0  0  0  0  0  0
   19.0920   -9.3628    3.8816 C   0  0  0  0  0  0  0  0  0  0  0  0
   18.8347  -10.8011    3.7196 N   0  0  0  0  0  0  0  0  0  0  0  0
   17.6252  -11.2865    3.9468 C   0  0  0  0  0  0  0  0  0  0  0  0
   16.7150  -10.5337    4.2939 O   0  0  0  0  0  0  0  0  0  0  0  0
   17.3592  -12.7734    3.7792 C   0  0  1  0  0  0  0  0  0  0  0  0
   16.1783  -13.1083    4.6732 C   0  0  0  0  0  0  0  0  0  0  0  0
   17.0191  -13.0184    2.3191 C   0  0  0  0  0  0  0  0  0  0  0  0
   15.2058  -13.9453    3.9571 N   0  0  0  0  0  0  0  0  0  0  0  0
   16.7949  -14.5166    2.1729 C   0  0  0  0  0  0  0  0  0  0  0  0
   13.8574  -13.7711    4.3157 C   0  0  0  0  0  0  0  0  0  0  0  0
   15.5243  -14.9215    2.9054 C   0  0  0  0  0  0  0  0  0  0  0  0
   12.9851  -14.4567    3.7823 O   0  0  0  0  0  0  0  0  0  0  0  0
   13.4939  -12.7827    5.3148 C   0  0  0  0  0  0  0  0  0  0  0  0
   12.9364  -11.5562    4.9672 C   0  0  0  0  0  0  0  0  0  0  0  0
   13.6986  -13.0484    6.6653 C   0  0  0  0  0  0  0  0  0  0  0  0
   12.6038  -10.6529    5.9017 N   0  0  0  0  0  0  0  0  0  0  0  0
   13.3479  -12.1022    7.6226 C   0  0  0  0  0  0  0  0  0  0  0  0
   12.7942  -10.8962    7.2075 C   0  0  0  0  0  0  0  0  0  0  0  0
   12.4177   -9.8724    8.2673 C   0  0  0  0  0  0  0  0  0  0  0  0
   21.8742   -8.6237    7.4501 H   0  0  0  0  0  0  0  0  0  0  0  0
   20.5553   -9.5100    1.9527 H   0  0  0  0  0  0  0  0  0  0  0  0
   21.8932   -8.6015    1.7263 H   0  0  0  0  0  0  0  0  0  0  0  0
   22.0293  -10.2130    1.9534 H   0  0  0  0  0  0  0  0  0  0  0  0
   19.7372   -8.9501    6.4232 H   0  0  0  0  0  0  0  0  0  0  0  0
   19.0531   -8.9146    2.9886 H   0  0  0  0  0  0  0  0  0  0  0  0
   18.3994   -8.9662    4.4841 H   0  0  0  0  0  0  0  0  0  0  0  0
   19.5740  -11.4126    3.4376 H   0  0  0  0  0  0  0  0  0  0  0  0
   18.1628  -13.3054    4.0460 H   0  0  0  0  0  0  0  0  0  0  0  0
   15.7330  -12.2602    4.9603 H   0  0  0  0  0  0  0  0  0  0  0  0
   16.5060  -13.6019    5.4788 H   0  0  0  0  0  0  0  0  0  0  0  0
   17.7749  -12.7236    1.7343 H   0  0  0  0  0  0  0  0  0  0  0  0
   16.1897  -12.5189    2.0692 H   0  0  0  0  0  0  0  0  0  0  0  0
   17.5736  -15.0085    2.5624 H   0  0  0  0  0  0  0  0  0  0  0  0
   16.7067  -14.7461    1.2037 H   0  0  0  0  0  0  0  0  0  0  0  0
   14.7670  -14.9625    2.2536 H   0  0  0  0  0  0  0  0  0  0  0  0
   15.6560  -15.8217    3.3204 H   0  0  0  0  0  0  0  0  0  0  0  0
   12.7809  -11.3439    4.0023 H   0  0  0  0  0  0  0  0  0  0  0  0
   14.0982  -13.9203    6.9479 H   0  0  0  0  0  0  0  0  0  0  0  0
   13.4919  -12.2866    8.5948 H   0  0  0  0  0  0  0  0  0  0  0  0
   12.6344  -10.2357    9.1735 H   0  0  0  0  0  0  0  0  0  0  0  0
   12.9332   -9.0292    8.1144 H   0  0  0  0  0  0  0  0  0  0  0  0
   11.4382   -9.6791    8.2112 H   0  0  0  0  0  0  0  0  0  0  0  0
  1  2  1  0  0  0  0
  2  3  2  0  0  0  0
  2  4  1  0  0  0  0
  3  5  1  0  0  0  0
  3  6  1  0  0  0  0
  4  7  2  0  0  0  0
  4  8  1  0  0  0  0
  6  9  2  0  0  0  0
  7 10  1  0  0  0  0
 10 11  1  0  0  0  0
 11 12  1  0  0  0  0
 12 13  2  0  0  0  0
 12 14  1  0  0  0  0
 14 15  1  0  0  0  0
 14 16  1  0  0  0  0
 15 17  1  0  0  0  0
 16 18  1  0  0  0  0
 17 19  1  0  0  0  0
 17 20  1  0  0  0  0
 19 21  2  0  0  0  0
 19 22  1  0  0  0  0
 22 23  2  0  0  0  0
 22 24  1  0  0  0  0
 23 25  1  0  0  0  0
 24 26  2  0  0  0  0
 25 27  2  0  0  0  0
 27 28  1  0  0  0  0
  7  9  1  0  0  0  0
 18 20  1  0  0  0  0
 26 27  1  0  0  0  0
  6 29  1  0  0  0  0
  8 30  1  0  0  0  0
  8 31  1  0  0  0  0
  8 32  1  0  0  0  0
  9 33  1  0  0  0  0
 10 34  1  0  0  0  0
 10 35  1  0  0  0  0
 11 36  1  0  0  0  0
 14 37  1  0  0  0  0
 15 38  1  0  0  0  0
 15 39  1  0  0  0  0
 16 40  1  0  0  0  0
 16 41  1  0  0  0  0
 18 42  1  0  0  0  0
 18 43  1  0  0  0  0
 20 44  1  0  0  0  0
 20 45  1  0  0  0  0
 23 46  1  0  0  0  0
 24 47  1  0  0  0  0
 26 48  1  0  0  0  0
 28 49  1  0  0  0  0
 28 50  1  0  0  0  0
 28 51  1  0  0  0  0
M  END
> <BIOSOLVEIT.HYDE_ESTIMATED_AFFINITY_LOWER_BOUNDARY [nM]>
32917958.051504

> <BIOSOLVEIT.HYDE_ESTIMATED_AFFINITY_UPPER_BOUNDARY [nM]>
3270593758.787857

> <BIOSOLVEIT.HYDE_LIGAND_EFFICIENCY range: ++, +, 0, -, -->
--

> <BIOSOLVEIT.HYDE_LIGAND_LIPOPHILIC_EFFICIENCY range: ++, +, 0, -, -->
--

> <BIOSOLVEIT.INTER_CLASH range: red, yellow, green>
green

> <BIOSOLVEIT.INTRA_CLASH range: red, yellow, green>
green

> <BIOSOLVEIT.LOGP>
4.17384

> <BIOSOLVEIT.MOLECULAR WEIGHT>
420.338

> <BIOSOLVEIT.MOLECULE_CHECKSUM>
LTIuNzYyNTE7MC4wOTg2NjE=

> <BIOSOLVEIT.TORSION_QUALITY range: red, yellow, green, not rotatable>
green

> <BIOSOLVEIT.TPSA>
62.3

> <BIOSOLVEIT.SEESAR_FAVORITE>
favorite

> <smc_score>
0.688

> <QED_score>
0.808

> <distance>
0.723

> <SimilarityPheSA_1>
0.648

> <Smiles>
Cc1ccc(C(=O)N2CCCC(C(=O)NCc3ccc(Cl)c(Cl)c3C)C2)cn1

> <Similarity_SkelSpheres>
0.609

> <Cluster No>
289.0

> <QueryID>
MAT-POS-f7918075-5

> <SimilarityPheSA>
0.6477

> <Postera series>
3-aminopyridine-like

> <PDB_code>
Mpro-x11499

> <Approach>
DGM_exploratory_RL

> <ID>
20210628_667

> <SimilarityPheSA_2>
0.72

> <OPTIBRIUM.logD>
2.88952

> <OPTIBRIUM.BBB category>
-

> <OPTIBRIUM.logP>
2.88952

> <OPTIBRIUM.P-gp category>
yes

> <OPTIBRIUM.logS>
1.00799

> <OPTIBRIUM.HIA category>
+

> <OPTIBRIUM.PPB90 category>
high

> <OPTIBRIUM.2D6 affinity category>
high

> <OPTIBRIUM.hERG pIC50>
4.55166

> <OPTIBRIUM.2C9 pKi>
5.68865

> <OPTIBRIUM.BBB log([brain]:[blood])>
-0.388447

> <OPTIBRIUM.logS @ pH7.4>
1.00799

$$$$
Compound 1397_1_06
haSeeSAR  07122114523D 1   1.00000     0.00000     0
SeeSAR 11.0.2 hazemaj
 51 53  0  0  0  0            999 V2000
   23.4217   -8.7310    6.7719 Cl  0  0  0  0  0  0  0  0  0  0  0  0
   22.5916   -8.9112    5.2072 C   0  0  0  0  0  0  0  0  0  0  0  0
   23.3103   -8.8522    4.0171 C   0  0  0  0  0  0  0  0  0  0  0  0
   21.2152   -9.1129    5.1688 C   0  0  0  0  0  0  0  0  0  0  0  0
   25.0708   -8.5951    4.0745 Cl  0  0  0  0  0  0  0  0  0  0  0  0
   22.6702   -8.9919    2.7899 C   0  0  0  0  0  0  0  0  0  0  0  0
   20.5666   -9.2535    3.9456 C   0  0  0  0  0  0  0  0  0  0  0  0
   20.4200   -9.1793    6.4633 C   0  0  0  0  0  0  0  0  0  0  0  0
   21.2945   -9.1926    2.7620 C   0  0  0  0  0  0  0  0  0  0  0  0
   19.0651   -9.4745    3.8638 C   0  0  0  0  0  0  0  0  0  0  0  0
   18.7887  -10.9101    3.7111 N   0  0  0  0  0  0  0  0  0  0  0  0
   17.5733  -11.3781    3.9432 C   0  0  0  0  0  0  0  0  0  0  0  0
   16.6737  -10.6114    4.2872 O   0  0  0  0  0  0  0  0  0  0  0  0
   17.2875  -12.8625    3.7854 C   0  0  1  0  0  0  0  0  0  0  0  0
   16.1110  -13.1785    4.6920 C   0  0  0  0  0  0  0  0  0  0  0  0
   16.9309  -13.1101    2.3297 C   0  0  0  0  0  0  0  0  0  0  0  0
   15.1216  -14.0069    3.9889 N   0  0  0  0  0  0  0  0  0  0  0  0
   16.6867  -14.6062    2.1929 C   0  0  0  0  0  0  0  0  0  0  0  0
   13.7788  -13.8144    4.3591 C   0  0  0  0  0  0  0  0  0  0  0  0
   15.4183  -14.9919    2.9390 C   0  0  0  0  0  0  0  0  0  0  0  0
   12.8941  -14.4973    3.8431 O   0  0  0  0  0  0  0  0  0  0  0  0
   13.4358  -12.8102    5.3498 C   0  0  0  0  0  0  0  0  0  0  0  0
   12.8889  -11.5816    4.9927 C   0  0  0  0  0  0  0  0  0  0  0  0
   13.6503  -13.0622    6.7013 C   0  0  0  0  0  0  0  0  0  0  0  0
   12.5752  -10.6636    5.9196 N   0  0  0  0  0  0  0  0  0  0  0  0
   13.3193  -12.1010    7.6506 C   0  0  0  0  0  0  0  0  0  0  0  0
   12.7752  -10.8938    7.2264 C   0  0  0  0  0  0  0  0  0  0  0  0
   12.4204   -9.8533    8.2775 C   0  0  0  0  0  0  0  0  0  0  0  0
   23.1928   -8.9485    1.9383 H   0  0  0  0  0  0  0  0  0  0  0  0
   19.4537   -9.3279    6.2536 H   0  0  0  0  0  0  0  0  0  0  0  0
   20.7593   -9.9342    7.0245 H   0  0  0  0  0  0  0  0  0  0  0  0
   20.5243   -8.3193    6.9630 H   0  0  0  0  0  0  0  0  0  0  0  0
   20.8252   -9.2940    1.8849 H   0  0  0  0  0  0  0  0  0  0  0  0
   18.6976   -8.9788    3.0769 H   0  0  0  0  0  0  0  0  0  0  0  0
   18.6327   -9.1390    4.7008 H   0  0  0  0  0  0  0  0  0  0  0  0
   19.5194  -11.5331    3.4317 H   0  0  0  0  0  0  0  0  0  0  0  0
   18.0869  -13.4031    4.0473 H   0  0  0  0  0  0  0  0  0  0  0  0
   15.6788  -12.3236    4.9790 H   0  0  0  0  0  0  0  0  0  0  0  0
   16.4401  -13.6723    5.4968 H   0  0  0  0  0  0  0  0  0  0  0  0
   17.6846  -12.8274    1.7365 H   0  0  0  0  0  0  0  0  0  0  0  0
   16.1053  -12.6016    2.0850 H   0  0  0  0  0  0  0  0  0  0  0  0
   17.4630  -15.1057    2.5775 H   0  0  0  0  0  0  0  0  0  0  0  0
   16.5868  -14.8391    1.2255 H   0  0  0  0  0  0  0  0  0  0  0  0
   14.6545  -15.0265    2.2945 H   0  0  0  0  0  0  0  0  0  0  0  0
   15.5427  -15.8917    3.3571 H   0  0  0  0  0  0  0  0  0  0  0  0
   12.7266  -11.3789    4.0270 H   0  0  0  0  0  0  0  0  0  0  0  0
   14.0428  -13.9352    6.9905 H   0  0  0  0  0  0  0  0  0  0  0  0
   13.4704  -12.2755    8.6236 H   0  0  0  0  0  0  0  0  0  0  0  0
   12.6415  -10.2083    9.1859 H   0  0  0  0  0  0  0  0  0  0  0  0
   12.9437   -9.0179    8.1097 H   0  0  0  0  0  0  0  0  0  0  0  0
   11.4425   -9.6498    8.2281 H   0  0  0  0  0  0  0  0  0  0  0  0
  1  2  1  0  0  0  0
  2  3  2  0  0  0  0
  2  4  1  0  0  0  0
  3  5  1  0  0  0  0
  3  6  1  0  0  0  0
  4  7  2  0  0  0  0
  4  8  1  0  0  0  0
  6  9  2  0  0  0  0
  7 10  1  0  0  0  0
 10 11  1  0  0  0  0
 11 12  1  0  0  0  0
 12 13  2  0  0  0  0
 12 14  1  0  0  0  0
 14 15  1  0  0  0  0
 14 16  1  0  0  0  0
 15 17  1  0  0  0  0
 16 18  1  0  0  0  0
 17 19  1  0  0  0  0
 17 20  1  0  0  0  0
 19 21  2  0  0  0  0
 19 22  1  0  0  0  0
 22 23  2  0  0  0  0
 22 24  1  0  0  0  0
 23 25  1  0  0  0  0
 24 26  2  0  0  0  0
 25 27  2  0  0  0  0
 27 28  1  0  0  0  0
  7  9  1  0  0  0  0
 18 20  1  0  0  0  0
 26 27  1  0  0  0  0
  6 29  1  0  0  0  0
  8 30  1  0  0  0  0
  8 31  1  0  0  0  0
  8 32  1  0  0  0  0
  9 33  1  0  0  0  0
 10 34  1  0  0  0  0
 10 35  1  0  0  0  0
 11 36  1  0  0  0  0
 14 37  1  0  0  0  0
 15 38  1  0  0  0  0
 15 39  1  0  0  0  0
 16 40  1  0  0  0  0
 16 41  1  0  0  0  0
 18 42  1  0  0  0  0
 18 43  1  0  0  0  0
 20 44  1  0  0  0  0
 20 45  1  0  0  0  0
 23 46  1  0  0  0  0
 24 47  1  0  0  0  0
 26 48  1  0  0  0  0
 28 49  1  0  0  0  0
 28 50  1  0  0  0  0
 28 51  1  0  0  0  0
M  END
> <BIOSOLVEIT.HYDE_ESTIMATED_AFFINITY_LOWER_BOUNDARY [nM]>
181024768.823904

> <BIOSOLVEIT.HYDE_ESTIMATED_AFFINITY_UPPER_BOUNDARY [nM]>
17985881085.793190

> <BIOSOLVEIT.HYDE_LIGAND_EFFICIENCY range: ++, +, 0, -, -->
--

> <BIOSOLVEIT.HYDE_LIGAND_LIPOPHILIC_EFFICIENCY range: ++, +, 0, -, -->
--

> <BIOSOLVEIT.INTER_CLASH range: red, yellow, green>
green

> <BIOSOLVEIT.INTRA_CLASH range: red, yellow, green>
green

> <BIOSOLVEIT.LOGP>
4.17384

> <BIOSOLVEIT.MOLECULAR WEIGHT>
420.338

> <BIOSOLVEIT.MOLECULE_CHECKSUM>
MS40NjMxNjsw

> <BIOSOLVEIT.TORSION_QUALITY range: red, yellow, green, not rotatable>
green

> <BIOSOLVEIT.TPSA>
62.3

> <BIOSOLVEIT.SEESAR_FAVORITE>
favorite

> <smc_score>
0.688

> <QED_score>
0.808

> <distance>
0.723

> <SimilarityPheSA_1>
0.648

> <Smiles>
Cc1ccc(C(=O)N2CCCC(C(=O)NCc3ccc(Cl)c(Cl)c3C)C2)cn1

> <Similarity_SkelSpheres>
0.609

> <Cluster No>
289.0

> <QueryID>
MAT-POS-f7918075-5

> <SimilarityPheSA>
0.6477

> <Postera series>
3-aminopyridine-like

> <PDB_code>
Mpro-x11499

> <Approach>
DGM_exploratory_RL

> <ID>
20210628_667

> <SimilarityPheSA_2>
0.72

> <OPTIBRIUM.logD>
2.88952

> <OPTIBRIUM.BBB category>
-

> <OPTIBRIUM.logP>
2.88952

> <OPTIBRIUM.P-gp category>
yes

> <OPTIBRIUM.logS>
1.00799

> <OPTIBRIUM.HIA category>
+

> <OPTIBRIUM.PPB90 category>
high

> <OPTIBRIUM.2D6 affinity category>
high

> <OPTIBRIUM.hERG pIC50>
4.55166

> <OPTIBRIUM.2C9 pKi>
5.68865

> <OPTIBRIUM.BBB log([brain]:[blood])>
-0.388447

> <OPTIBRIUM.logS @ pH7.4>
1.00799

$$$$
Compound 1397_1_10
haSeeSAR  07122114523D 1   1.00000     0.00000     0
SeeSAR 11.0.2 hazemaj
 51 53  0  0  0  0            999 V2000
   24.3369   -9.0015    3.2954 Cl  0  0  0  0  0  0  0  0  0  0  0  0
   22.8653   -8.9848    4.2973 C   0  0  0  0  0  0  0  0  0  0  0  0
   22.9505   -8.7836    5.6716 C   0  0  0  0  0  0  0  0  0  0  0  0
   21.6193   -9.1732    3.7069 C   0  0  0  0  0  0  0  0  0  0  0  0
   24.5478   -8.5420    6.4191 Cl  0  0  0  0  0  0  0  0  0  0  0  0
   21.8060   -8.7689    6.4624 C   0  0  0  0  0  0  0  0  0  0  0  0
   20.4692   -9.1602    4.4904 C   0  0  0  0  0  0  0  0  0  0  0  0
   21.5146   -9.3937    2.2059 C   0  0  0  0  0  0  0  0  0  0  0  0
   20.5656   -8.9586    5.8630 C   0  0  0  0  0  0  0  0  0  0  0  0
   19.0914   -9.3631    3.8815 C   0  0  0  0  0  0  0  0  0  0  0  0
   18.8342  -10.8013    3.7194 N   0  0  0  0  0  0  0  0  0  0  0  0
   17.6246  -11.2867    3.9463 C   0  0  0  0  0  0  0  0  0  0  0  0
   16.7144  -10.5339    4.2931 O   0  0  0  0  0  0  0  0  0  0  0  0
   17.3586  -12.7735    3.7786 C   0  0  1  0  0  0  0  0  0  0  0  0
   16.1779  -13.1085    4.6729 C   0  0  0  0  0  0  0  0  0  0  0  0
   17.0183  -13.0184    2.3185 C   0  0  0  0  0  0  0  0  0  0  0  0
   15.2053  -13.9455    3.9568 N   0  0  0  0  0  0  0  0  0  0  0  0
   16.7940  -14.5167    2.1723 C   0  0  0  0  0  0  0  0  0  0  0  0
   13.8569  -13.7714    4.3156 C   0  0  0  0  0  0  0  0  0  0  0  0
   15.5236  -14.9216    2.9050 C   0  0  0  0  0  0  0  0  0  0  0  0
   12.9847  -14.4572    3.7825 O   0  0  0  0  0  0  0  0  0  0  0  0
   13.4935  -12.7829    5.3148 C   0  0  0  0  0  0  0  0  0  0  0  0
   12.9363  -11.5563    4.9670 C   0  0  0  0  0  0  0  0  0  0  0  0
   13.6982  -13.0486    6.6653 C   0  0  0  0  0  0  0  0  0  0  0  0
   12.6037  -10.6530    5.9017 N   0  0  0  0  0  0  0  0  0  0  0  0
   13.3477  -12.1024    7.6226 C   0  0  0  0  0  0  0  0  0  0  0  0
   12.7941  -10.8963    7.2075 C   0  0  0  0  0  0  0  0  0  0  0  0
   12.4179   -9.8725    8.2673 C   0  0  0  0  0  0  0  0  0  0  0  0
   21.8744   -8.6238    7.4494 H   0  0  0  0  0  0  0  0  0  0  0  0
   20.5544   -9.5105    1.9523 H   0  0  0  0  0  0  0  0  0  0  0  0
   21.8923   -8.6021    1.7256 H   0  0  0  0  0  0  0  0  0  0  0  0
   22.0284  -10.2134    1.9528 H   0  0  0  0  0  0  0  0  0  0  0  0
   19.7372   -8.9501    6.4230 H   0  0  0  0  0  0  0  0  0  0  0  0
   19.0523   -8.9147    2.9885 H   0  0  0  0  0  0  0  0  0  0  0  0
   18.3989   -8.9665    4.4842 H   0  0  0  0  0  0  0  0  0  0  0  0
   19.5735  -11.4127    3.4377 H   0  0  0  0  0  0  0  0  0  0  0  0
   18.1622  -13.3056    4.0452 H   0  0  0  0  0  0  0  0  0  0  0  0
   15.7326  -12.2604    4.9601 H   0  0  0  0  0  0  0  0  0  0  0  0
   16.5057  -13.6022    5.4783 H   0  0  0  0  0  0  0  0  0  0  0  0
   17.7739  -12.7235    1.7336 H   0  0  0  0  0  0  0  0  0  0  0  0
   16.1888  -12.5189    2.0688 H   0  0  0  0  0  0  0  0  0  0  0  0
   17.5728  -15.0084    2.5615 H   0  0  0  0  0  0  0  0  0  0  0  0
   16.7056  -14.7460    1.2030 H   0  0  0  0  0  0  0  0  0  0  0  0
   14.7663  -14.9625    2.2533 H   0  0  0  0  0  0  0  0  0  0  0  0
   15.6554  -15.8220    3.3199 H   0  0  0  0  0  0  0  0  0  0  0  0
   12.7807  -11.3440    4.0023 H   0  0  0  0  0  0  0  0  0  0  0  0
   14.0978  -13.9207    6.9478 H   0  0  0  0  0  0  0  0  0  0  0  0
   13.4916  -12.2868    8.5948 H   0  0  0  0  0  0  0  0  0  0  0  0
   12.6345  -10.2358    9.1734 H   0  0  0  0  0  0  0  0  0  0  0  0
   12.9333   -9.0294    8.1143 H   0  0  0  0  0  0  0  0  0  0  0  0
   11.4383   -9.6791    8.2112 H   0  0  0  0  0  0  0  0  0  0  0  0
  1  2  1  0  0  0  0
  2  3  2  0  0  0  0
  2  4  1  0  0  0  0
  3  5  1  0  0  0  0
  3  6  1  0  0  0  0
  4  7  2  0  0  0  0
  4  8  1  0  0  0  0
  6  9  2  0  0  0  0
  7 10  1  0  0  0  0
 10 11  1  0  0  0  0
 11 12  1  0  0  0  0
 12 13  2  0  0  0  0
 12 14  1  0  0  0  0
 14 15  1  0  0  0  0
 14 16  1  0  0  0  0
 15 17  1  0  0  0  0
 16 18  1  0  0  0  0
 17 19  1  0  0  0  0
 17 20  1  0  0  0  0
 19 21  2  0  0  0  0
 19 22  1  0  0  0  0
 22 23  2  0  0  0  0
 22 24  1  0  0  0  0
 23 25  1  0  0  0  0
 24 26  2  0  0  0  0
 25 27  2  0  0  0  0
 27 28  1  0  0  0  0
  7  9  1  0  0  0  0
 18 20  1  0  0  0  0
 26 27  1  0  0  0  0
  6 29  1  0  0  0  0
  8 30  1  0  0  0  0
  8 31  1  0  0  0  0
  8 32  1  0  0  0  0
  9 33  1  0  0  0  0
 10 34  1  0  0  0  0
 10 35  1  0  0  0  0
 11 36  1  0  0  0  0
 14 37  1  0  0  0  0
 15 38  1  0  0  0  0
 15 39  1  0  0  0  0
 16 40  1  0  0  0  0
 16 41  1  0  0  0  0
 18 42  1  0  0  0  0
 18 43  1  0  0  0  0
 20 44  1  0  0  0  0
 20 45  1  0  0  0  0
 23 46  1  0  0  0  0
 24 47  1  0  0  0  0
 26 48  1  0  0  0  0
 28 49  1  0  0  0  0
 28 50  1  0  0  0  0
 28 51  1  0  0  0  0
M  END
> <BIOSOLVEIT.HYDE_ESTIMATED_AFFINITY_LOWER_BOUNDARY [nM]>
33946840.799141

> <BIOSOLVEIT.HYDE_ESTIMATED_AFFINITY_UPPER_BOUNDARY [nM]>
3372819343.001814

> <BIOSOLVEIT.HYDE_LIGAND_EFFICIENCY range: ++, +, 0, -, -->
--

> <BIOSOLVEIT.HYDE_LIGAND_LIPOPHILIC_EFFICIENCY range: ++, +, 0, -, -->
--

> <BIOSOLVEIT.INTER_CLASH range: red, yellow, green>
green

> <BIOSOLVEIT.INTRA_CLASH range: red, yellow, green>
green

> <BIOSOLVEIT.LOGP>
4.17384

> <BIOSOLVEIT.MOLECULAR WEIGHT>
420.338

> <BIOSOLVEIT.MOLECULE_CHECKSUM>
LTIuNjg2MjE7MC4wOTU5MzYx

> <BIOSOLVEIT.TORSION_QUALITY range: red, yellow, green, not rotatable>
green

> <BIOSOLVEIT.TPSA>
62.3

> <BIOSOLVEIT.SEESAR_FAVORITE>
favorite

> <smc_score>
0.688

> <QED_score>
0.808

> <distance>
0.723

> <SimilarityPheSA_1>
0.648

> <Smiles>
Cc1ccc(C(=O)N2CCCC(C(=O)NCc3ccc(Cl)c(Cl)c3C)C2)cn1

> <Similarity_SkelSpheres>
0.609

> <Cluster No>
289.0

> <QueryID>
MAT-POS-f7918075-5

> <SimilarityPheSA>
0.6477

> <Postera series>
3-aminopyridine-like

> <PDB_code>
Mpro-x11499

> <Approach>
DGM_exploratory_RL

> <ID>
20210628_667

> <SimilarityPheSA_2>
0.72

> <OPTIBRIUM.logD>
2.88952

> <OPTIBRIUM.BBB category>
-

> <OPTIBRIUM.logP>
2.88952

> <OPTIBRIUM.P-gp category>
yes

> <OPTIBRIUM.logS>
1.00799

> <OPTIBRIUM.HIA category>
+

> <OPTIBRIUM.PPB90 category>
high

> <OPTIBRIUM.2D6 affinity category>
high

> <OPTIBRIUM.hERG pIC50>
4.55166

> <OPTIBRIUM.2C9 pKi>
5.68865

> <OPTIBRIUM.BBB log([brain]:[blood])>
-0.388447

> <OPTIBRIUM.logS @ pH7.4>
1.00799

$$$$
Compound 1451_1_1
haSeeSAR  07122114523D 1   1.00000     0.00000     0
SeeSAR 11.0.2 hazemaj
 43 45  0  0  0  0            999 V2000
   19.2156   -7.5110    2.7549 Cl  0  0  0  0  0  0  0  0  0  0  0  0
   20.6852   -8.2208    3.4661 C   0  0  0  0  0  0  0  0  0  0  0  0
   21.7600   -7.4042    3.8004 C   0  0  0  0  0  0  0  0  0  0  0  0
   20.7670   -9.5908    3.6914 C   0  0  0  0  0  0  0  0  0  0  0  0
   21.6817   -6.0938    3.5852 F   0  0  0  0  0  0  0  0  0  0  0  0
   22.9167   -7.9397    4.3566 C   0  0  0  0  0  0  0  0  0  0  0  0
   21.9163  -10.1433    4.2470 C   0  0  0  0  0  0  0  0  0  0  0  0
   19.6016  -10.4979    3.3322 C   0  0  0  0  0  0  0  0  0  0  0  0
   22.9819   -9.3121    4.5749 C   0  0  0  0  0  0  0  0  0  0  0  0
   19.2333  -11.3500    4.5358 C   0  0  2  0  0  0  0  0  0  0  0  0
   24.4564  -10.0110    5.2858 Cl  0  0  0  0  0  0  0  0  0  0  0  0
   17.9375  -12.0051    4.2950 N   0  0  0  0  0  0  0  0  0  0  0  0
   19.1336  -10.4680    5.7697 C   0  0  0  0  0  0  0  0  0  0  0  0
   16.7330  -11.3322    4.1176 C   0  0  0  0  0  0  0  0  0  0  0  0
   17.6917  -13.4555    4.2310 C   0  0  0  0  0  0  0  0  0  0  0  0
   16.6256  -10.1164    4.1866 O   0  0  0  0  0  0  0  0  0  0  0  0
   15.6933  -12.2335    3.8505 N   0  0  0  0  0  0  0  0  0  0  0  0
   16.2550  -13.5870    3.7678 C   0  0  0  0  0  0  0  0  0  0  0  0
   14.2784  -11.8678    3.6560 C   0  0  0  0  0  0  0  0  0  0  0  0
   13.6878  -11.4067    4.9782 C   0  0  0  0  0  0  0  0  0  0  0  0
   12.7801  -10.4771    5.1452 N   0  0  0  0  0  0  0  0  0  0  0  0
   14.0156  -11.8994    6.2570 C   0  0  0  0  0  0  0  0  0  0  0  0
   12.4992  -10.3268    6.3772 O   0  0  0  0  0  0  0  0  0  0  0  0
   13.2238  -11.1626    7.0850 C   0  0  0  0  0  0  0  0  0  0  0  0
   13.1894  -11.2950    8.5988 C   0  0  0  0  0  0  0  0  0  0  0  0
   23.6875   -7.3491    4.5951 H   0  0  0  0  0  0  0  0  0  0  0  0
   21.9756  -11.1283    4.4092 H   0  0  0  0  0  0  0  0  0  0  0  0
   19.8634  -11.0914    2.5712 H   0  0  0  0  0  0  0  0  0  0  0  0
   18.8155   -9.9406    3.0652 H   0  0  0  0  0  0  0  0  0  0  0  0
   19.9370  -12.0459    4.6794 H   0  0  0  0  0  0  0  0  0  0  0  0
   18.8913  -11.0287    6.5615 H   0  0  0  0  0  0  0  0  0  0  0  0
   20.0140  -10.0230    5.9333 H   0  0  0  0  0  0  0  0  0  0  0  0
   18.4300   -9.7722    5.6260 H   0  0  0  0  0  0  0  0  0  0  0  0
   17.8105  -13.8727    5.1320 H   0  0  0  0  0  0  0  0  0  0  0  0
   18.3129  -13.8892    3.5783 H   0  0  0  0  0  0  0  0  0  0  0  0
   15.7509  -14.2118    4.3640 H   0  0  0  0  0  0  0  0  0  0  0  0
   16.2201  -13.9232    2.8268 H   0  0  0  0  0  0  0  0  0  0  0  0
   13.7712  -12.6630    3.3237 H   0  0  0  0  0  0  0  0  0  0  0  0
   14.2142  -11.1279    2.9862 H   0  0  0  0  0  0  0  0  0  0  0  0
   14.6704  -12.6158    6.4981 H   0  0  0  0  0  0  0  0  0  0  0  0
   12.5289  -10.6454    8.9753 H   0  0  0  0  0  0  0  0  0  0  0  0
   12.9197  -12.2257    8.8459 H   0  0  0  0  0  0  0  0  0  0  0  0
   14.0970  -11.1010    8.9712 H   0  0  0  0  0  0  0  0  0  0  0  0
  1  2  1  0  0  0  0
  2  3  2  0  0  0  0
  2  4  1  0  0  0  0
  3  5  1  0  0  0  0
  3  6  1  0  0  0  0
  4  7  2  0  0  0  0
  4  8  1  0  0  0  0
  6  9  2  0  0  0  0
  8 10  1  0  0  0  0
  9 11  1  0  0  0  0
 10 12  1  0  0  0  0
 10 13  1  0  0  0  0
 12 14  1  0  0  0  0
 12 15  1  0  0  0  0
 14 16  2  0  0  0  0
 14 17  1  0  0  0  0
 15 18  1  0  0  0  0
 17 19  1  0  0  0  0
 19 20  1  0  0  0  0
 20 21  2  0  0  0  0
 20 22  1  0  0  0  0
 21 23  1  0  0  0  0
 22 24  2  0  0  0  0
 24 25  1  0  0  0  0
  7  9  1  0  0  0  0
 17 18  1  0  0  0  0
 23 24  1  0  0  0  0
  6 26  1  0  0  0  0
  7 27  1  0  0  0  0
  8 28  1  0  0  0  0
  8 29  1  0  0  0  0
 10 30  1  0  0  0  0
 13 31  1  0  0  0  0
 13 32  1  0  0  0  0
 13 33  1  0  0  0  0
 15 34  1  0  0  0  0
 15 35  1  0  0  0  0
 18 36  1  0  0  0  0
 18 37  1  0  0  0  0
 19 38  1  0  0  0  0
 19 39  1  0  0  0  0
 22 40  1  0  0  0  0
 25 41  1  0  0  0  0
 25 42  1  0  0  0  0
 25 43  1  0  0  0  0
M  END
> <BIOSOLVEIT.HYDE_ESTIMATED_AFFINITY_LOWER_BOUNDARY [nM]>
254142733.657364

> <BIOSOLVEIT.HYDE_ESTIMATED_AFFINITY_UPPER_BOUNDARY [nM]>
25250583199.618843

> <BIOSOLVEIT.HYDE_LIGAND_EFFICIENCY range: ++, +, 0, -, -->
--

> <BIOSOLVEIT.HYDE_LIGAND_LIPOPHILIC_EFFICIENCY range: ++, +, 0, -, -->
--

> <BIOSOLVEIT.INTER_CLASH range: red, yellow, green>
green

> <BIOSOLVEIT.INTRA_CLASH range: red, yellow, green>
green

> <BIOSOLVEIT.LOGP>
4.29772

> <BIOSOLVEIT.MOLECULAR WEIGHT>
386.252

> <BIOSOLVEIT.MOLECULE_CHECKSUM>
Mi4zMDQxODsw

> <BIOSOLVEIT.TORSION_QUALITY range: red, yellow, green, not rotatable>
green

> <BIOSOLVEIT.TPSA>
49.58

> <BIOSOLVEIT.SEESAR_FAVORITE>
favorite

> <smc_score>
0.875

> <QED_score>
0.72

> <distance>
0.753

> <SimilarityPheSA_1>
0.639

> <Smiles>
Cc1cc(CN2CCN(C(C)Cc3cc(Cl)cc(F)c3Cl)C2=O)no1

> <Similarity_SkelSpheres>
0.572

> <Cluster No>
315.0

> <QueryID>
JAG-UCB-a3ef7265-20

> <SimilarityPheSA>
0.6387

> <Postera series>
3-aminopyridine-like

> <PDB_code>
Mpro-x10324

> <Approach>
DGM_exploratory_RL

> <ID>
20210628_721

> <SimilarityPheSA_2>
0.692

> <OPTIBRIUM.logD>
4.4449

> <OPTIBRIUM.BBB category>
-

> <OPTIBRIUM.logP>
4.4449

> <OPTIBRIUM.P-gp category>
no

> <OPTIBRIUM.logS>
0.412342

> <OPTIBRIUM.HIA category>
+

> <OPTIBRIUM.PPB90 category>
high

> <OPTIBRIUM.2D6 affinity category>
medium

> <OPTIBRIUM.hERG pIC50>
5.6444

> <OPTIBRIUM.2C9 pKi>
5.48151

> <OPTIBRIUM.BBB log([brain]:[blood])>
0.18325

> <OPTIBRIUM.logS @ pH7.4>
0.412342

$$$$
Compound 1454_1_1
haSeeSAR  07122114523D 1   1.00000     0.00000     0
SeeSAR 11.0.2 hazemaj
 40 41  0  0  0  0            999 V2000
   14.2626  -15.0123    2.3520 Cl  0  0  0  0  0  0  0  0  0  0  0  0
   15.1969  -14.0183    1.2087 C   0  0  0  0  0  0  0  0  0  0  0  0
   15.4500  -12.6778    1.4785 C   0  0  0  0  0  0  0  0  0  0  0  0
   15.6735  -14.5966    0.0366 C   0  0  0  0  0  0  0  0  0  0  0  0
   16.1806  -11.9065    0.5801 C   0  0  0  0  0  0  0  0  0  0  0  0
   14.9276  -12.0486    2.7602 C   0  0  0  0  0  0  0  0  0  0  0  0
   16.4045  -13.8284   -0.8638 C   0  0  0  0  0  0  0  0  0  0  0  0
   16.6559  -12.4884   -0.5908 C   0  0  0  0  0  0  0  0  0  0  0  0
   15.7131  -12.5384    3.9021 N   0  0  0  0  0  0  0  0  0  0  0  0
   16.9237  -14.4658   -2.1431 C   0  0  0  0  0  0  0  0  0  0  0  0
   17.5908  -11.4992   -1.7379 Cl  0  0  0  0  0  0  0  0  0  0  0  0
   16.2557  -11.6790    4.7491 C   0  0  0  0  0  0  0  0  0  0  0  0
   16.1027  -10.4691    4.5809 O   0  0  0  0  0  0  0  0  0  0  0  0
   17.0679  -12.1854    5.9299 C   0  0  0  0  0  0  0  0  0  0  0  0
   16.7885  -11.3179    7.1464 C   0  0  0  0  0  0  0  0  0  0  0  0
   15.6891  -11.9545    7.9810 C   0  0  0  0  0  0  0  0  0  0  0  0
   14.3784  -11.9134    7.2095 C   0  0  0  0  0  0  0  0  0  0  0  0
   13.6103  -10.7567    7.1226 C   0  0  0  0  0  0  0  0  0  0  0  0
   13.9161  -13.0550    6.5629 C   0  0  0  0  0  0  0  0  0  0  0  0
   12.4577  -10.7361    6.4371 N   0  0  0  0  0  0  0  0  0  0  0  0
   12.7184  -13.0172    5.8558 C   0  0  0  0  0  0  0  0  0  0  0  0
   11.9985  -11.8281    5.8082 C   0  0  0  0  0  0  0  0  0  0  0  0
   10.8554  -11.8054    5.1289 F   0  0  0  0  0  0  0  0  0  0  0  0
   15.4915  -15.5605   -0.1577 H   0  0  0  0  0  0  0  0  0  0  0  0
   16.3624  -10.9424    0.7742 H   0  0  0  0  0  0  0  0  0  0  0  0
   13.9669  -12.2963    2.8857 H   0  0  0  0  0  0  0  0  0  0  0  0
   15.0103  -11.0538    2.7009 H   0  0  0  0  0  0  0  0  0  0  0  0
   15.8374  -13.5212    4.0387 H   0  0  0  0  0  0  0  0  0  0  0  0
   17.4246  -13.7837   -2.6759 H   0  0  0  0  0  0  0  0  0  0  0  0
   17.5344  -15.2238   -1.9137 H   0  0  0  0  0  0  0  0  0  0  0  0
   16.1537  -14.8091   -2.6808 H   0  0  0  0  0  0  0  0  0  0  0  0
   18.0418  -12.1434    5.7071 H   0  0  0  0  0  0  0  0  0  0  0  0
   16.8120  -13.1313    6.1292 H   0  0  0  0  0  0  0  0  0  0  0  0
   16.4965  -10.4092    6.8478 H   0  0  0  0  0  0  0  0  0  0  0  0
   17.6198  -11.2370    7.6961 H   0  0  0  0  0  0  0  0  0  0  0  0
   15.5872  -11.4501    8.8384 H   0  0  0  0  0  0  0  0  0  0  0  0
   15.9293  -12.9046    8.1797 H   0  0  0  0  0  0  0  0  0  0  0  0
   13.9238   -9.9246    7.5800 H   0  0  0  0  0  0  0  0  0  0  0  0
   14.4445  -13.9028    6.6064 H   0  0  0  0  0  0  0  0  0  0  0  0
   12.3798  -13.8338    5.3883 H   0  0  0  0  0  0  0  0  0  0  0  0
  1  2  1  0  0  0  0
  2  3  2  0  0  0  0
  2  4  1  0  0  0  0
  3  5  1  0  0  0  0
  3  6  1  0  0  0  0
  4  7  2  0  0  0  0
  5  8  2  0  0  0  0
  6  9  1  0  0  0  0
  7 10  1  0  0  0  0
  8 11  1  0  0  0  0
  9 12  1  0  0  0  0
 12 13  2  0  0  0  0
 12 14  1  0  0  0  0
 14 15  1  0  0  0  0
 15 16  1  0  0  0  0
 16 17  1  0  0  0  0
 17 18  2  0  0  0  0
 17 19  1  0  0  0  0
 18 20  1  0  0  0  0
 19 21  2  0  0  0  0
 20 22  2  0  0  0  0
 22 23  1  0  0  0  0
  7  8  1  0  0  0  0
 21 22  1  0  0  0  0
  4 24  1  0  0  0  0
  5 25  1  0  0  0  0
  6 26  1  0  0  0  0
  6 27  1  0  0  0  0
  9 28  1  0  0  0  0
 10 29  1  0  0  0  0
 10 30  1  0  0  0  0
 10 31  1  0  0  0  0
 14 32  1  0  0  0  0
 14 33  1  0  0  0  0
 15 34  1  0  0  0  0
 15 35  1  0  0  0  0
 16 36  1  0  0  0  0
 16 37  1  0  0  0  0
 18 38  1  0  0  0  0
 19 39  1  0  0  0  0
 21 40  1  0  0  0  0
M  END
> <BIOSOLVEIT.HYDE_ESTIMATED_AFFINITY_LOWER_BOUNDARY [nM]>
8300.937180

> <BIOSOLVEIT.HYDE_ESTIMATED_AFFINITY_UPPER_BOUNDARY [nM]>
824747.187857

> <BIOSOLVEIT.HYDE_LIGAND_EFFICIENCY range: ++, +, 0, -, -->
-

> <BIOSOLVEIT.HYDE_LIGAND_LIPOPHILIC_EFFICIENCY range: ++, +, 0, -, -->
--

> <BIOSOLVEIT.INTER_CLASH range: red, yellow, green>
red

> <BIOSOLVEIT.INTRA_CLASH range: red, yellow, green>
green

> <BIOSOLVEIT.LOGP>
4.47502

> <BIOSOLVEIT.MOLECULAR WEIGHT>
355.238

> <BIOSOLVEIT.MOLECULE_CHECKSUM>
LTIzLjMwMTc7MS4wMTMxMg==

> <BIOSOLVEIT.TORSION_QUALITY range: red, yellow, green, not rotatable>
yellow

> <BIOSOLVEIT.TPSA>
41.99

> <BIOSOLVEIT.SEESAR_FAVORITE>
favorite

> <smc_score>
0.563

> <QED_score>
0.777

> <distance>
0.631

> <SimilarityPheSA_1>
0.65

> <Smiles>
Cc1cc(Cl)c(CNC(=O)CCCc2ccc(F)nc2)cc1Cl

> <Similarity_SkelSpheres>
0.635

> <Cluster No>
317.0

> <QueryID>
JAN-GHE-5a013bed-2

> <SimilarityPheSA>
0.6497

> <Postera series>
3-aminopyridine-like

> <PDB_code>
Mpro-x10466

> <Approach>
DGM_exploratory_RL

> <ID>
20210628_724

> <SimilarityPheSA_2>
0.733

> <OPTIBRIUM.logD>
3.95243

> <OPTIBRIUM.BBB category>
+

> <OPTIBRIUM.logP>
3.95243

> <OPTIBRIUM.P-gp category>
no

> <OPTIBRIUM.logS>
0.904307

> <OPTIBRIUM.HIA category>
+

> <OPTIBRIUM.PPB90 category>
high

> <OPTIBRIUM.2D6 affinity category>
medium

> <OPTIBRIUM.hERG pIC50>
4.80871

> <OPTIBRIUM.2C9 pKi>
5.61866

> <OPTIBRIUM.BBB log([brain]:[blood])>
0.0324913

> <OPTIBRIUM.logS @ pH7.4>
0.904307

$$$$
Compound 1460_1_1
haSeeSAR  07122114523D 1   1.00000     0.00000     0
SeeSAR 11.0.2 hazemaj
 30 31  0  0  0  0            999 V2000
   18.7882   -6.9233    2.6698 Cl  0  0  0  0  0  0  0  0  0  0  0  0
   19.6238   -8.4596    2.9981 C   0  0  0  0  0  0  0  0  0  0  0  0
   20.8977   -8.6810    2.4872 C   0  0  0  0  0  0  0  0  0  0  0  0
   18.9937   -9.4324    3.7663 C   0  0  0  0  0  0  0  0  0  0  0  0
   21.4858   -7.7394    1.7551 F   0  0  0  0  0  0  0  0  0  0  0  0
   21.5607   -9.8781    2.7357 C   0  0  0  0  0  0  0  0  0  0  0  0
   19.6602  -10.6273    4.0125 C   0  0  0  0  0  0  0  0  0  0  0  0
   20.9348  -10.8542    3.5036 C   0  0  0  0  0  0  0  0  0  0  0  0
   18.9835  -11.6984    4.8517 C   0  0  0  0  0  0  0  0  0  0  0  0
   17.6859  -12.0430    4.2531 N   0  0  0  0  0  0  0  0  0  0  0  0
   16.6188  -11.3074    4.5187 C   0  0  0  0  0  0  0  0  0  0  0  0
   16.7124  -10.3346    5.2670 O   0  0  0  0  0  0  0  0  0  0  0  0
   15.2770  -11.6637    3.8996 C   0  0  0  0  0  0  0  0  0  0  0  0
   14.1634  -11.3403    4.8829 C   0  0  0  0  0  0  0  0  0  0  0  0
   12.9714  -10.8812    4.5902 N   0  0  0  0  0  0  0  0  0  0  0  0
   14.2270  -11.4752    6.2348 N   0  0  0  0  0  0  0  0  0  0  0  0
   12.2960  -10.7378    5.6533 O   0  0  0  0  0  0  0  0  0  0  0  0
   13.0497  -11.0897    6.6704 C   0  0  0  0  0  0  0  0  0  0  0  0
   12.6269  -11.0694    8.1324 C   0  0  0  0  0  0  0  0  0  0  0  0
   18.0775   -9.2753    4.1350 H   0  0  0  0  0  0  0  0  0  0  0  0
   22.4768  -10.0350    2.3665 H   0  0  0  0  0  0  0  0  0  0  0  0
   21.4010  -11.7190    3.6900 H   0  0  0  0  0  0  0  0  0  0  0  0
   18.8416  -11.3544    5.7799 H   0  0  0  0  0  0  0  0  0  0  0  0
   19.5629  -12.5129    4.8831 H   0  0  0  0  0  0  0  0  0  0  0  0
   17.6098  -12.8333    3.6452 H   0  0  0  0  0  0  0  0  0  0  0  0
   15.2581  -12.6400    3.6840 H   0  0  0  0  0  0  0  0  0  0  0  0
   15.1456  -11.1346    3.0614 H   0  0  0  0  0  0  0  0  0  0  0  0
   11.6865  -10.7365    8.2028 H   0  0  0  0  0  0  0  0  0  0  0  0
   12.6819  -11.9945    8.5082 H   0  0  0  0  0  0  0  0  0  0  0  0
   13.2343  -10.4640    8.6466 H   0  0  0  0  0  0  0  0  0  0  0  0
  1  2  1  0  0  0  0
  2  3  2  0  0  0  0
  2  4  1  0  0  0  0
  3  5  1  0  0  0  0
  3  6  1  0  0  0  0
  4  7  2  0  0  0  0
  6  8  2  0  0  0  0
  7  9  1  0  0  0  0
  9 10  1  0  0  0  0
 10 11  1  0  0  0  0
 11 12  2  0  0  0  0
 11 13  1  0  0  0  0
 13 14  1  0  0  0  0
 14 15  2  0  0  0  0
 14 16  1  0  0  0  0
 15 17  1  0  0  0  0
 16 18  2  0  0  0  0
 18 19  1  0  0  0  0
  7  8  1  0  0  0  0
 17 18  1  0  0  0  0
  4 20  1  0  0  0  0
  6 21  1  0  0  0  0
  8 22  1  0  0  0  0
  9 23  1  0  0  0  0
  9 24  1  0  0  0  0
 10 25  1  0  0  0  0
 13 26  1  0  0  0  0
 13 27  1  0  0  0  0
 19 28  1  0  0  0  0
 19 29  1  0  0  0  0
 19 30  1  0  0  0  0
M  END
> <BIOSOLVEIT.HYDE_ESTIMATED_AFFINITY_LOWER_BOUNDARY [nM]>
16185522.901614

> <BIOSOLVEIT.HYDE_ESTIMATED_AFFINITY_UPPER_BOUNDARY [nM]>
1608127396.660307

> <BIOSOLVEIT.HYDE_LIGAND_EFFICIENCY range: ++, +, 0, -, -->
--

> <BIOSOLVEIT.HYDE_LIGAND_LIPOPHILIC_EFFICIENCY range: ++, +, 0, -, -->
--

> <BIOSOLVEIT.INTER_CLASH range: red, yellow, green>
green

> <BIOSOLVEIT.INTRA_CLASH range: red, yellow, green>
green

> <BIOSOLVEIT.LOGP>
2.02942

> <BIOSOLVEIT.MOLECULAR WEIGHT>
283.689

> <BIOSOLVEIT.MOLECULE_CHECKSUM>
LTQuNTIyMzI7MC4yMzgwMTc=

> <BIOSOLVEIT.TORSION_QUALITY range: red, yellow, green, not rotatable>
yellow

> <BIOSOLVEIT.TPSA>
68.02

> <BIOSOLVEIT.SEESAR_FAVORITE>
favorite

> <smc_score>
0.625

> <QED_score>
0.932

> <distance>
0.542

> <SimilarityPheSA_1>
0.631

> <Smiles>
Cc1nc(CC(=O)NCc2ccc(F)c(Cl)c2)no1

> <Similarity_SkelSpheres>
0.634

> <Cluster No>
321.0

> <QueryID>
JAN-GHE-5a013bed-2

> <SimilarityPheSA>
0.631

> <Postera series>
3-aminopyridine-like

> <PDB_code>
Mpro-x10466

> <Approach>
DGM_exploratory_RL

> <ID>
20210628_730

> <SimilarityPheSA_2>
0.717

> <OPTIBRIUM.logD>
2.29016

> <OPTIBRIUM.BBB category>
-

> <OPTIBRIUM.logP>
2.29016

> <OPTIBRIUM.P-gp category>
no

> <OPTIBRIUM.logS>
2.57603

> <OPTIBRIUM.HIA category>
+

> <OPTIBRIUM.PPB90 category>
low

> <OPTIBRIUM.2D6 affinity category>
medium

> <OPTIBRIUM.hERG pIC50>
4.3959

> <OPTIBRIUM.2C9 pKi>
4.57935

> <OPTIBRIUM.BBB log([brain]:[blood])>
-0.196244

> <OPTIBRIUM.logS @ pH7.4>
2.57603

$$$$
Compound 1471_1_02
haSeeSAR  07122114523D 1   1.00000     0.00000     0
SeeSAR 11.0.2 hazemaj
 42 44  0  0  0  0            999 V2000
   20.2397  -14.5549   11.1915 Cl  0  0  0  0  0  0  0  0  0  0  0  0
   19.5246  -13.6434    9.8399 C   0  0  0  0  0  0  0  0  0  0  0  0
   18.7547  -14.3017    8.8876 C   0  0  0  0  0  0  0  0  0  0  0  0
   19.7441  -12.2765    9.7367 C   0  0  0  0  0  0  0  0  0  0  0  0
   18.4865  -16.0583    8.9965 Cl  0  0  0  0  0  0  0  0  0  0  0  0
   18.2056  -13.5517    7.8549 C   0  0  0  0  0  0  0  0  0  0  0  0
   19.2174  -11.5317    8.6899 C   0  0  0  0  0  0  0  0  0  0  0  0
   18.4219  -12.1794    7.7556 C   0  0  0  0  0  0  0  0  0  0  0  0
   19.4581  -10.2108    8.5367 O   0  0  0  0  0  0  0  0  0  0  0  0
   17.8435  -11.3052    6.6522 C   0  0  2  0  0  0  0  0  0  0  0  0
   19.6784   -9.6855    7.2322 C   0  0  0  0  0  0  0  0  0  0  0  0
   17.3353  -12.0842    5.5096 N   0  0  0  0  0  0  0  0  0  0  0  0
   19.0744  -10.5693    6.1487 C   0  0  0  0  0  0  0  0  0  0  0  0
   16.6194  -11.4894    4.5694 C   0  0  0  0  0  0  0  0  0  0  0  0
   16.3780  -10.2848    4.6492 O   0  0  0  0  0  0  0  0  0  0  0  0
   16.0951  -12.2930    3.3906 C   0  0  0  0  0  0  0  0  0  0  0  0
   14.8109  -13.0008    3.7911 C   0  0  0  0  0  0  0  0  0  0  0  0
   14.1563  -12.2510    4.9422 C   0  0  0  0  0  0  0  0  0  0  0  0
   13.3524  -11.1345    4.7334 C   0  0  0  0  0  0  0  0  0  0  0  0
   14.3572  -12.6828    6.2487 C   0  0  0  0  0  0  0  0  0  0  0  0
   12.7857  -10.4910    5.7649 N   0  0  0  0  0  0  0  0  0  0  0  0
   13.7619  -12.0036    7.3068 C   0  0  0  0  0  0  0  0  0  0  0  0
   12.9689  -10.8938    7.0316 C   0  0  0  0  0  0  0  0  0  0  0  0
   12.3251  -10.1622    8.1974 C   0  0  0  0  0  0  0  0  0  0  0  0
   20.2951  -11.8170   10.4334 H   0  0  0  0  0  0  0  0  0  0  0  0
   17.6417  -14.0081    7.1668 H   0  0  0  0  0  0  0  0  0  0  0  0
   17.1534  -10.6732    7.0048 H   0  0  0  0  0  0  0  0  0  0  0  0
   20.6634   -9.6121    7.0763 H   0  0  0  0  0  0  0  0  0  0  0  0
   19.2634   -8.7774    7.1760 H   0  0  0  0  0  0  0  0  0  0  0  0
   17.5315  -13.0626    5.4448 H   0  0  0  0  0  0  0  0  0  0  0  0
   18.8155   -9.9978    5.3701 H   0  0  0  0  0  0  0  0  0  0  0  0
   19.7573  -11.2394    5.8579 H   0  0  0  0  0  0  0  0  0  0  0  0
   16.7784  -12.9708    3.1190 H   0  0  0  0  0  0  0  0  0  0  0  0
   15.9117  -11.6785    2.6234 H   0  0  0  0  0  0  0  0  0  0  0  0
   15.0210  -13.9353    4.0785 H   0  0  0  0  0  0  0  0  0  0  0  0
   14.1862  -13.0246    3.0107 H   0  0  0  0  0  0  0  0  0  0  0  0
   13.1950  -10.8076    3.8016 H   0  0  0  0  0  0  0  0  0  0  0  0
   14.9303  -13.4824    6.4278 H   0  0  0  0  0  0  0  0  0  0  0  0
   13.9014  -12.3078    8.2490 H   0  0  0  0  0  0  0  0  0  0  0  0
   12.5792  -10.6112    9.0539 H   0  0  0  0  0  0  0  0  0  0  0  0
   12.6417   -9.2137    8.2114 H   0  0  0  0  0  0  0  0  0  0  0  0
   11.3306  -10.1802    8.0938 H   0  0  0  0  0  0  0  0  0  0  0  0
  1  2  1  0  0  0  0
  2  3  2  0  0  0  0
  2  4  1  0  0  0  0
  3  5  1  0  0  0  0
  3  6  1  0  0  0  0
  4  7  2  0  0  0  0
  6  8  2  0  0  0  0
  7  9  1  0  0  0  0
  8 10  1  0  0  0  0
  9 11  1  0  0  0  0
 10 12  1  0  0  0  0
 10 13  1  0  0  0  0
 12 14  1  0  0  0  0
 14 15  2  0  0  0  0
 14 16  1  0  0  0  0
 16 17  1  0  0  0  0
 17 18  1  0  0  0  0
 18 19  2  0  0  0  0
 18 20  1  0  0  0  0
 19 21  1  0  0  0  0
 20 22  2  0  0  0  0
 21 23  2  0  0  0  0
 23 24  1  0  0  0  0
  7  8  1  0  0  0  0
 11 13  1  0  0  0  0
 22 23  1  0  0  0  0
  4 25  1  0  0  0  0
  6 26  1  0  0  0  0
 10 27  1  0  0  0  0
 11 28  1  0  0  0  0
 11 29  1  0  0  0  0
 12 30  1  0  0  0  0
 13 31  1  0  0  0  0
 13 32  1  0  0  0  0
 16 33  1  0  0  0  0
 16 34  1  0  0  0  0
 17 35  1  0  0  0  0
 17 36  1  0  0  0  0
 19 37  1  0  0  0  0
 20 38  1  0  0  0  0
 22 39  1  0  0  0  0
 24 40  1  0  0  0  0
 24 41  1  0  0  0  0
 24 42  1  0  0  0  0
M  END
> <BIOSOLVEIT.HYDE_ESTIMATED_AFFINITY_LOWER_BOUNDARY [nM]>
2471905.526503

> <BIOSOLVEIT.HYDE_ESTIMATED_AFFINITY_UPPER_BOUNDARY [nM]>
245598429.120202

> <BIOSOLVEIT.HYDE_LIGAND_EFFICIENCY range: ++, +, 0, -, -->
--

> <BIOSOLVEIT.HYDE_LIGAND_LIPOPHILIC_EFFICIENCY range: ++, +, 0, -, -->
--

> <BIOSOLVEIT.INTER_CLASH range: red, yellow, green>
green

> <BIOSOLVEIT.INTRA_CLASH range: red, yellow, green>
green

> <BIOSOLVEIT.LOGP>
4.26942

> <BIOSOLVEIT.MOLECULAR WEIGHT>
365.258

> <BIOSOLVEIT.MOLECULE_CHECKSUM>
LTkuMTgwNjswLjM4MjUyNQ==

> <BIOSOLVEIT.TORSION_QUALITY range: red, yellow, green, not rotatable>
yellow

> <BIOSOLVEIT.TPSA>
51.22

> <BIOSOLVEIT.SEESAR_FAVORITE>
favorite

> <smc_score>
1.0

> <QED_score>
0.88

> <distance>
0.565

> <SimilarityPheSA_1>
0.705

> <Smiles>
Cc1ccc(CCC(=O)NC2CCOc3cc(Cl)c(Cl)cc32)cn1

> <Similarity_SkelSpheres>
0.694

> <Cluster No>
328.0

> <QueryID>
MAT-POS-199e2e7c-1

> <SimilarityPheSA>
0.7047

> <Postera series>
3-aminopyridine-like

> <PDB_code>
Mpro-x12000

> <Approach>
DGM_exploratory_RL

> <ID>
20210628_741

> <SimilarityPheSA_2>
0.783

> <OPTIBRIUM.logD>
3.63214

> <OPTIBRIUM.BBB category>
+

> <OPTIBRIUM.logP>
3.63214

> <OPTIBRIUM.P-gp category>
no

> <OPTIBRIUM.logS>
1.14189

> <OPTIBRIUM.HIA category>
+

> <OPTIBRIUM.PPB90 category>
high

> <OPTIBRIUM.2D6 affinity category>
high

> <OPTIBRIUM.hERG pIC50>
4.63486

> <OPTIBRIUM.2C9 pKi>
5.51566

> <OPTIBRIUM.BBB log([brain]:[blood])>
-0.149924

> <OPTIBRIUM.logS @ pH7.4>
1.14189

$$$$
Compound 1471_1_03
haSeeSAR  07122114523D 1   1.00000     0.00000     0
SeeSAR 11.0.2 hazemaj
 42 44  0  0  0  0            999 V2000
   17.5546  -14.4663   10.7555 Cl  0  0  0  0  0  0  0  0  0  0  0  0
   17.8656  -13.6570    9.1994 C   0  0  0  0  0  0  0  0  0  0  0  0
   17.0224  -12.6240    8.7973 C   0  0  0  0  0  0  0  0  0  0  0  0
   18.9314  -14.0357    8.3866 C   0  0  0  0  0  0  0  0  0  0  0  0
   15.6513  -12.1101    9.8105 Cl  0  0  0  0  0  0  0  0  0  0  0  0
   17.2731  -12.0017    7.5762 C   0  0  0  0  0  0  0  0  0  0  0  0
   19.1868  -13.4083    7.1704 C   0  0  0  0  0  0  0  0  0  0  0  0
   18.3347  -12.3895    6.7623 C   0  0  0  0  0  0  0  0  0  0  0  0
   20.2400  -13.7469    6.3820 O   0  0  0  0  0  0  0  0  0  0  0  0
   18.5388  -11.6725    5.4367 C   0  0  2  0  0  0  0  0  0  0  0  0
   20.3713  -13.3537    5.0233 C   0  0  0  0  0  0  0  0  0  0  0  0
   17.5908  -12.1651    4.4221 N   0  0  0  0  0  0  0  0  0  0  0  0
   19.9557  -11.8942    4.9306 C   0  0  0  0  0  0  0  0  0  0  0  0
   16.6577  -11.3593    3.9422 C   0  0  0  0  0  0  0  0  0  0  0  0
   16.5814  -10.1980    4.3435 O   0  0  0  0  0  0  0  0  0  0  0  0
   15.6797  -11.8674    2.8954 C   0  0  0  0  0  0  0  0  0  0  0  0
   14.6913  -12.8214    3.5463 C   0  0  0  0  0  0  0  0  0  0  0  0
   14.0758  -12.1574    4.7694 C   0  0  0  0  0  0  0  0  0  0  0  0
   13.2598  -11.0348    4.6676 C   0  0  0  0  0  0  0  0  0  0  0  0
   14.3261  -12.6769    6.0347 C   0  0  0  0  0  0  0  0  0  0  0  0
   12.7283  -10.4679    5.7609 N   0  0  0  0  0  0  0  0  0  0  0  0
   13.7669  -12.0765    7.1581 C   0  0  0  0  0  0  0  0  0  0  0  0
   12.9595  -10.9559    6.9892 C   0  0  0  0  0  0  0  0  0  0  0  0
   12.3553  -10.3110    8.2253 C   0  0  0  0  0  0  0  0  0  0  0  0
   19.5299  -14.7792    8.6850 H   0  0  0  0  0  0  0  0  0  0  0  0
   16.6757  -11.2579    7.2765 H   0  0  0  0  0  0  0  0  0  0  0  0
   18.3912  -10.6926    5.5709 H   0  0  0  0  0  0  0  0  0  0  0  0
   19.7783  -13.9153    4.4461 H   0  0  0  0  0  0  0  0  0  0  0  0
   21.3207  -13.4585    4.7273 H   0  0  0  0  0  0  0  0  0  0  0  0
   17.6528  -13.1084    4.0962 H   0  0  0  0  0  0  0  0  0  0  0  0
   20.5846  -11.3440    5.4800 H   0  0  0  0  0  0  0  0  0  0  0  0
   20.0065  -11.6041    3.9750 H   0  0  0  0  0  0  0  0  0  0  0  0
   16.1814  -12.3473    2.1757 H   0  0  0  0  0  0  0  0  0  0  0  0
   15.1849  -11.0944    2.4985 H   0  0  0  0  0  0  0  0  0  0  0  0
   15.1670  -13.6560    3.8239 H   0  0  0  0  0  0  0  0  0  0  0  0
   13.9698  -13.0506    2.8929 H   0  0  0  0  0  0  0  0  0  0  0  0
   13.0671  -10.6454    3.7669 H   0  0  0  0  0  0  0  0  0  0  0  0
   14.9090  -13.4830    6.1373 H   0  0  0  0  0  0  0  0  0  0  0  0
   13.9420  -12.4441    8.0714 H   0  0  0  0  0  0  0  0  0  0  0  0
   12.6426  -10.8163    9.0390 H   0  0  0  0  0  0  0  0  0  0  0  0
   12.6680   -9.3636    8.2935 H   0  0  0  0  0  0  0  0  0  0  0  0
   11.3579  -10.3288    8.1567 H   0  0  0  0  0  0  0  0  0  0  0  0
  1  2  1  0  0  0  0
  2  3  2  0  0  0  0
  2  4  1  0  0  0  0
  3  5  1  0  0  0  0
  3  6  1  0  0  0  0
  4  7  2  0  0  0  0
  6  8  2  0  0  0  0
  7  9  1  0  0  0  0
  8 10  1  0  0  0  0
  9 11  1  0  0  0  0
 10 12  1  0  0  0  0
 10 13  1  0  0  0  0
 12 14  1  0  0  0  0
 14 15  2  0  0  0  0
 14 16  1  0  0  0  0
 16 17  1  0  0  0  0
 17 18  1  0  0  0  0
 18 19  2  0  0  0  0
 18 20  1  0  0  0  0
 19 21  1  0  0  0  0
 20 22  2  0  0  0  0
 21 23  2  0  0  0  0
 23 24  1  0  0  0  0
  7  8  1  0  0  0  0
 11 13  1  0  0  0  0
 22 23  1  0  0  0  0
  4 25  1  0  0  0  0
  6 26  1  0  0  0  0
 10 27  1  0  0  0  0
 11 28  1  0  0  0  0
 11 29  1  0  0  0  0
 12 30  1  0  0  0  0
 13 31  1  0  0  0  0
 13 32  1  0  0  0  0
 16 33  1  0  0  0  0
 16 34  1  0  0  0  0
 17 35  1  0  0  0  0
 17 36  1  0  0  0  0
 19 37  1  0  0  0  0
 20 38  1  0  0  0  0
 22 39  1  0  0  0  0
 24 40  1  0  0  0  0
 24 41  1  0  0  0  0
 24 42  1  0  0  0  0
M  END
> <BIOSOLVEIT.HYDE_ESTIMATED_AFFINITY_LOWER_BOUNDARY [nM]>
6821539.164265

> <BIOSOLVEIT.HYDE_ESTIMATED_AFFINITY_UPPER_BOUNDARY [nM]>
677760248.101217

> <BIOSOLVEIT.HYDE_LIGAND_EFFICIENCY range: ++, +, 0, -, -->
--

> <BIOSOLVEIT.HYDE_LIGAND_LIPOPHILIC_EFFICIENCY range: ++, +, 0, -, -->
--

> <BIOSOLVEIT.INTER_CLASH range: red, yellow, green>
green

> <BIOSOLVEIT.INTRA_CLASH range: red, yellow, green>
green

> <BIOSOLVEIT.LOGP>
4.26942

> <BIOSOLVEIT.MOLECULAR WEIGHT>
365.258

> <BIOSOLVEIT.MOLECULE_CHECKSUM>
LTYuNjY0MjI7MC4yNzc2NzY=

> <BIOSOLVEIT.TORSION_QUALITY range: red, yellow, green, not rotatable>
green

> <BIOSOLVEIT.TPSA>
51.22

> <BIOSOLVEIT.SEESAR_FAVORITE>
favorite

> <smc_score>
1.0

> <QED_score>
0.88

> <distance>
0.565

> <SimilarityPheSA_1>
0.705

> <Smiles>
Cc1ccc(CCC(=O)NC2CCOc3cc(Cl)c(Cl)cc32)cn1

> <Similarity_SkelSpheres>
0.694

> <Cluster No>
328.0

> <QueryID>
MAT-POS-199e2e7c-1

> <SimilarityPheSA>
0.7047

> <Postera series>
3-aminopyridine-like

> <PDB_code>
Mpro-x12000

> <Approach>
DGM_exploratory_RL

> <ID>
20210628_741

> <SimilarityPheSA_2>
0.783

> <OPTIBRIUM.logD>
3.63214

> <OPTIBRIUM.BBB category>
+

> <OPTIBRIUM.logP>
3.63214

> <OPTIBRIUM.P-gp category>
no

> <OPTIBRIUM.logS>
1.14189

> <OPTIBRIUM.HIA category>
+

> <OPTIBRIUM.PPB90 category>
high

> <OPTIBRIUM.2D6 affinity category>
high

> <OPTIBRIUM.hERG pIC50>
4.63486

> <OPTIBRIUM.2C9 pKi>
5.51566

> <OPTIBRIUM.BBB log([brain]:[blood])>
-0.149924

> <OPTIBRIUM.logS @ pH7.4>
1.14189

$$$$
Compound 1471_1_05
haSeeSAR  07122114523D 1   1.00000     0.00000     0
SeeSAR 11.0.2 hazemaj
 42 44  0  0  0  0            999 V2000
   17.7046  -14.9666   10.7379 Cl  0  0  0  0  0  0  0  0  0  0  0  0
   17.8991  -13.9686    9.2796 C   0  0  0  0  0  0  0  0  0  0  0  0
   17.3469  -12.6869    9.2410 C   0  0  0  0  0  0  0  0  0  0  0  0
   18.6180  -14.4310    8.1802 C   0  0  0  0  0  0  0  0  0  0  0  0
   16.4648  -12.0472   10.6487 Cl  0  0  0  0  0  0  0  0  0  0  0  0
   17.4860  -11.9095    8.0977 C   0  0  0  0  0  0  0  0  0  0  0  0
   18.7927  -13.6498    7.0407 C   0  0  0  0  0  0  0  0  0  0  0  0
   18.1938  -12.4072    7.0087 C   0  0  0  0  0  0  0  0  0  0  0  0
   19.5721  -14.0963    6.0279 O   0  0  0  0  0  0  0  0  0  0  0  0
   18.3602  -11.6156    5.7299 C   0  0  2  0  0  0  0  0  0  0  0  0
   20.4168  -13.1155    5.4318 C   0  0  0  0  0  0  0  0  0  0  0  0
   17.5174  -12.1640    4.6531 N   0  0  0  0  0  0  0  0  0  0  0  0
   19.8672  -11.6958    5.5026 C   0  0  0  0  0  0  0  0  0  0  0  0
   16.6266  -11.3922    4.0522 C   0  0  0  0  0  0  0  0  0  0  0  0
   16.5019  -10.2158    4.3928 O   0  0  0  0  0  0  0  0  0  0  0  0
   15.7571  -11.9579    2.9412 C   0  0  0  0  0  0  0  0  0  0  0  0
   14.6803  -12.8459    3.5430 C   0  0  0  0  0  0  0  0  0  0  0  0
   14.0874  -12.1650    4.7680 C   0  0  0  0  0  0  0  0  0  0  0  0
   13.2236  -11.0790    4.6630 C   0  0  0  0  0  0  0  0  0  0  0  0
   14.4081  -12.6308    6.0383 C   0  0  0  0  0  0  0  0  0  0  0  0
   12.7133  -10.4962    5.7581 N   0  0  0  0  0  0  0  0  0  0  0  0
   13.8700  -12.0146    7.1634 C   0  0  0  0  0  0  0  0  0  0  0  0
   13.0121  -10.9326    6.9911 C   0  0  0  0  0  0  0  0  0  0  0  0
   12.4318  -10.2698    8.2292 C   0  0  0  0  0  0  0  0  0  0  0  0
   19.0188  -15.3467    8.2097 H   0  0  0  0  0  0  0  0  0  0  0  0
   17.0791  -10.9968    8.0580 H   0  0  0  0  0  0  0  0  0  0  0  0
   18.1030  -10.6638    5.8964 H   0  0  0  0  0  0  0  0  0  0  0  0
   20.5453  -13.3549    4.4693 H   0  0  0  0  0  0  0  0  0  0  0  0
   21.2997  -13.1344    5.9008 H   0  0  0  0  0  0  0  0  0  0  0  0
   17.6188  -13.1195    4.3764 H   0  0  0  0  0  0  0  0  0  0  0  0
   20.3230  -11.2210    6.2554 H   0  0  0  0  0  0  0  0  0  0  0  0
   20.0788  -11.2349    4.6409 H   0  0  0  0  0  0  0  0  0  0  0  0
   16.3228  -12.4966    2.3168 H   0  0  0  0  0  0  0  0  0  0  0  0
   15.3279  -11.2073    2.4388 H   0  0  0  0  0  0  0  0  0  0  0  0
   15.0815  -13.7221    3.8101 H   0  0  0  0  0  0  0  0  0  0  0  0
   13.9602  -13.0015    2.8668 H   0  0  0  0  0  0  0  0  0  0  0  0
   12.9800  -10.7284    3.7587 H   0  0  0  0  0  0  0  0  0  0  0  0
   15.0265  -13.4097    6.1432 H   0  0  0  0  0  0  0  0  0  0  0  0
   14.0956  -12.3437    8.0802 H   0  0  0  0  0  0  0  0  0  0  0  0
   12.7710  -10.7355    9.0465 H   0  0  0  0  0  0  0  0  0  0  0  0
   12.7087   -9.3092    8.2537 H   0  0  0  0  0  0  0  0  0  0  0  0
   11.4340  -10.3287    8.2020 H   0  0  0  0  0  0  0  0  0  0  0  0
  1  2  1  0  0  0  0
  2  3  2  0  0  0  0
  2  4  1  0  0  0  0
  3  5  1  0  0  0  0
  3  6  1  0  0  0  0
  4  7  2  0  0  0  0
  6  8  2  0  0  0  0
  7  9  1  0  0  0  0
  8 10  1  0  0  0  0
  9 11  1  0  0  0  0
 10 12  1  0  0  0  0
 10 13  1  0  0  0  0
 12 14  1  0  0  0  0
 14 15  2  0  0  0  0
 14 16  1  0  0  0  0
 16 17  1  0  0  0  0
 17 18  1  0  0  0  0
 18 19  2  0  0  0  0
 18 20  1  0  0  0  0
 19 21  1  0  0  0  0
 20 22  2  0  0  0  0
 21 23  2  0  0  0  0
 23 24  1  0  0  0  0
  7  8  1  0  0  0  0
 11 13  1  0  0  0  0
 22 23  1  0  0  0  0
  4 25  1  0  0  0  0
  6 26  1  0  0  0  0
 10 27  1  0  0  0  0
 11 28  1  0  0  0  0
 11 29  1  0  0  0  0
 12 30  1  0  0  0  0
 13 31  1  0  0  0  0
 13 32  1  0  0  0  0
 16 33  1  0  0  0  0
 16 34  1  0  0  0  0
 17 35  1  0  0  0  0
 17 36  1  0  0  0  0
 19 37  1  0  0  0  0
 20 38  1  0  0  0  0
 22 39  1  0  0  0  0
 24 40  1  0  0  0  0
 24 41  1  0  0  0  0
 24 42  1  0  0  0  0
M  END
> <BIOSOLVEIT.HYDE_ESTIMATED_AFFINITY_LOWER_BOUNDARY [nM]>
4795596.169727

> <BIOSOLVEIT.HYDE_ESTIMATED_AFFINITY_UPPER_BOUNDARY [nM]>
476470833.270856

> <BIOSOLVEIT.HYDE_LIGAND_EFFICIENCY range: ++, +, 0, -, -->
--

> <BIOSOLVEIT.HYDE_LIGAND_LIPOPHILIC_EFFICIENCY range: ++, +, 0, -, -->
--

> <BIOSOLVEIT.INTER_CLASH range: red, yellow, green>
green

> <BIOSOLVEIT.INTRA_CLASH range: red, yellow, green>
green

> <BIOSOLVEIT.LOGP>
4.26942

> <BIOSOLVEIT.MOLECULAR WEIGHT>
365.258

> <BIOSOLVEIT.MOLECULE_CHECKSUM>
LTcuNTM3Nzc7MC4zMTQwNzQ=

> <BIOSOLVEIT.TORSION_QUALITY range: red, yellow, green, not rotatable>
green

> <BIOSOLVEIT.TPSA>
51.22

> <BIOSOLVEIT.SEESAR_FAVORITE>
favorite

> <smc_score>
1.0

> <QED_score>
0.88

> <distance>
0.565

> <SimilarityPheSA_1>
0.705

> <Smiles>
Cc1ccc(CCC(=O)NC2CCOc3cc(Cl)c(Cl)cc32)cn1

> <Similarity_SkelSpheres>
0.694

> <Cluster No>
328.0

> <QueryID>
MAT-POS-199e2e7c-1

> <SimilarityPheSA>
0.7047

> <Postera series>
3-aminopyridine-like

> <PDB_code>
Mpro-x12000

> <Approach>
DGM_exploratory_RL

> <ID>
20210628_741

> <SimilarityPheSA_2>
0.783

> <OPTIBRIUM.logD>
3.63214

> <OPTIBRIUM.BBB category>
+

> <OPTIBRIUM.logP>
3.63214

> <OPTIBRIUM.P-gp category>
no

> <OPTIBRIUM.logS>
1.14189

> <OPTIBRIUM.HIA category>
+

> <OPTIBRIUM.PPB90 category>
high

> <OPTIBRIUM.2D6 affinity category>
high

> <OPTIBRIUM.hERG pIC50>
4.63486

> <OPTIBRIUM.2C9 pKi>
5.51566

> <OPTIBRIUM.BBB log([brain]:[blood])>
-0.149924

> <OPTIBRIUM.logS @ pH7.4>
1.14189

$$$$
Compound 1482_1_04
haSeeSAR  07122114523D 1   1.00000     0.00000     0
SeeSAR 11.0.2 hazemaj
 52 55  0  0  0  0            999 V2000
   17.3906  -16.8867    6.1014 Cl  0  0  0  0  0  0  0  0  0  0  0  0
   15.8937  -16.4000    5.2694 C   0  0  0  0  0  0  0  0  0  0  0  0
   14.7671  -17.2130    5.3322 C   0  0  0  0  0  0  0  0  0  0  0  0
   15.8636  -15.2038    4.5618 C   0  0  0  0  0  0  0  0  0  0  0  0
   14.8322  -18.7401    6.2440 Cl  0  0  0  0  0  0  0  0  0  0  0  0
   13.5917  -16.8413    4.6871 C   0  0  0  0  0  0  0  0  0  0  0  0
   14.6866  -14.8376    3.9187 C   0  0  0  0  0  0  0  0  0  0  0  0
   13.5565  -15.6461    3.9767 C   0  0  0  0  0  0  0  0  0  0  0  0
   14.6354  -13.5326    3.1406 C   0  0  0  0  0  0  0  0  0  0  0  0
   14.8063  -12.4033    4.0660 N   0  3  1  0  0  0  0  0  0  0  0  0
   15.7753  -11.4499    3.5028 C   0  0  1  0  0  0  0  0  0  0  0  0
   13.5140  -11.7305    4.2619 C   0  0  0  0  0  0  0  0  0  0  0  0
   16.8754  -11.0981    4.4824 C   0  0  0  0  0  0  0  0  0  0  0  0
   16.6023  -12.0581    2.3971 C   0  0  0  0  0  0  0  0  0  0  0  0
   13.2993  -11.4657    5.7467 C   0  0  0  0  0  0  0  0  0  0  0  0
   16.8224  -10.2173    5.3249 O   0  0  0  0  0  0  0  0  0  0  0  0
   17.9629  -11.9386    4.2498 N   0  0  0  0  0  0  0  0  0  0  0  0
   17.6281  -12.8613    3.1635 C   0  0  0  0  0  0  0  0  0  0  0  0
   12.8807  -10.3362    6.2896 O   0  0  0  0  0  0  0  0  0  0  0  0
   13.5093  -12.3979    6.7191 C   0  0  0  0  0  0  0  0  0  0  0  0
   19.2371  -11.9116    4.9821 C   0  0  0  0  0  0  0  0  0  0  0  0
   12.8014  -10.4789    7.6042 C   0  0  0  0  0  0  0  0  0  0  0  0
   13.1856  -11.7501    7.9316 C   0  0  0  0  0  0  0  0  0  0  0  0
   20.2214  -11.0113    4.2530 C   0  0  0  0  0  0  0  0  0  0  0  0
   19.9394  -10.5877    2.9584 C   0  0  0  0  0  0  0  0  0  0  0  0
   21.3938  -10.6227    4.8936 C   0  0  0  0  0  0  0  0  0  0  0  0
   20.8432   -9.7646    2.2945 C   0  0  0  0  0  0  0  0  0  0  0  0
   22.2892   -9.7990    4.2194 C   0  0  0  0  0  0  0  0  0  0  0  0
   22.0182   -9.3701    2.9259 C   0  0  0  0  0  0  0  0  0  0  0  0
   16.6729  -14.6179    4.5161 H   0  0  0  0  0  0  0  0  0  0  0  0
   12.7821  -17.4265    4.7336 H   0  0  0  0  0  0  0  0  0  0  0  0
   12.7183  -15.3680    3.5077 H   0  0  0  0  0  0  0  0  0  0  0  0
   13.7520  -13.4543    2.6787 H   0  0  0  0  0  0  0  0  0  0  0  0
   15.3690  -13.5206    2.4611 H   0  0  0  0  0  0  0  0  0  0  0  0
   15.3115  -10.6241    3.1824 H   0  0  0  0  0  0  0  0  0  0  0  0
   12.7787  -12.3142    3.9175 H   0  0  0  0  0  0  0  0  0  0  0  0
   13.5114  -10.8628    3.7647 H   0  0  0  0  0  0  0  0  0  0  0  0
   17.0386  -11.3508    1.8407 H   0  0  0  0  0  0  0  0  0  0  0  0
   16.0458  -12.6471    1.8110 H   0  0  0  0  0  0  0  0  0  0  0  0
   18.4275  -13.0676    2.5993 H   0  0  0  0  0  0  0  0  0  0  0  0
   17.2387  -13.7131    3.5139 H   0  0  0  0  0  0  0  0  0  0  0  0
   13.8250  -13.3393    6.5993 H   0  0  0  0  0  0  0  0  0  0  0  0
   19.6099  -12.8379    5.0367 H   0  0  0  0  0  0  0  0  0  0  0  0
   19.0835  -11.5590    5.9052 H   0  0  0  0  0  0  0  0  0  0  0  0
   12.5090   -9.7739    8.2504 H   0  0  0  0  0  0  0  0  0  0  0  0
   13.2290  -12.1438    8.8499 H   0  0  0  0  0  0  0  0  0  0  0  0
   19.0931  -10.8727    2.5083 H   0  0  0  0  0  0  0  0  0  0  0  0
   21.5896  -10.9308    5.8246 H   0  0  0  0  0  0  0  0  0  0  0  0
   20.6484   -9.4566    1.3634 H   0  0  0  0  0  0  0  0  0  0  0  0
   23.1353   -9.5131    4.6694 H   0  0  0  0  0  0  0  0  0  0  0  0
   22.6677   -8.7779    2.4489 H   0  0  0  0  0  0  0  0  0  0  0  0
   15.1430  -12.7407    4.9451 H   0  0  0  0  0  0  0  0  0  0  0  0
  1  2  1  0  0  0  0
  2  3  2  0  0  0  0
  2  4  1  0  0  0  0
  3  5  1  0  0  0  0
  3  6  1  0  0  0  0
  4  7  2  0  0  0  0
  6  8  2  0  0  0  0
  7  9  1  0  0  0  0
  9 10  1  0  0  0  0
 10 11  1  0  0  0  0
 10 12  1  0  0  0  0
 11 13  1  0  0  0  0
 11 14  1  0  0  0  0
 12 15  1  0  0  0  0
 13 16  2  0  0  0  0
 13 17  1  0  0  0  0
 14 18  1  0  0  0  0
 15 19  1  0  0  0  0
 15 20  2  0  0  0  0
 17 21  1  0  0  0  0
 19 22  1  0  0  0  0
 20 23  1  0  0  0  0
 21 24  1  0  0  0  0
 24 25  2  0  0  0  0
 24 26  1  0  0  0  0
 25 27  1  0  0  0  0
 26 28  2  0  0  0  0
 27 29  2  0  0  0  0
  7  8  1  0  0  0  0
 17 18  1  0  0  0  0
 22 23  2  0  0  0  0
 28 29  1  0  0  0  0
  4 30  1  0  0  0  0
  6 31  1  0  0  0  0
  8 32  1  0  0  0  0
  9 33  1  0  0  0  0
  9 34  1  0  0  0  0
 11 35  1  0  0  0  0
 12 36  1  0  0  0  0
 12 37  1  0  0  0  0
 14 38  1  0  0  0  0
 14 39  1  0  0  0  0
 18 40  1  0  0  0  0
 18 41  1  0  0  0  0
 20 42  1  0  0  0  0
 21 43  1  0  0  0  0
 21 44  1  0  0  0  0
 22 45  1  0  0  0  0
 23 46  1  0  0  0  0
 25 47  1  0  0  0  0
 26 48  1  0  0  0  0
 27 49  1  0  0  0  0
 28 50  1  0  0  0  0
 29 51  1  0  0  0  0
 10 52  1  0  0  0  0
M  CHG  1  10   1
M  END
> <BIOSOLVEIT.HYDE_ESTIMATED_AFFINITY_LOWER_BOUNDARY [nM]>
147077.573701

> <BIOSOLVEIT.HYDE_ESTIMATED_AFFINITY_UPPER_BOUNDARY [nM]>
14613026.538673

> <BIOSOLVEIT.HYDE_LIGAND_EFFICIENCY range: ++, +, 0, -, -->
--

> <BIOSOLVEIT.HYDE_LIGAND_LIPOPHILIC_EFFICIENCY range: ++, +, 0, -, -->
--

> <BIOSOLVEIT.INTER_CLASH range: red, yellow, green>
green

> <BIOSOLVEIT.INTRA_CLASH range: red, yellow, green>
green

> <BIOSOLVEIT.LOGP>
3.9726

> <BIOSOLVEIT.MOLECULAR WEIGHT>
430.353

> <BIOSOLVEIT.MOLECULE_CHECKSUM>
LTE2LjE3NTc7MC41NTc3ODI=

> <BIOSOLVEIT.TORSION_QUALITY range: red, yellow, green, not rotatable>
yellow

> <BIOSOLVEIT.TPSA>
37.89

> <BIOSOLVEIT.SEESAR_FAVORITE>
favorite

> <smc_score>
0.625

> <QED_score>
0.505

> <distance>
0.723

> <SimilarityPheSA_1>
0.669

> <Smiles>
O=C1C(N(Cc2ccc(Cl)c(Cl)c2)Cc2ccco2)CCN1Cc1ccccc1

> <Similarity_SkelSpheres>
0.628

> <Cluster No>
332.0

> <QueryID>
ADA-UCB-6c2cb422-1

> <SimilarityPheSA>
0.6687

> <Postera series>
3-aminopyridine-like

> <PDB_code>
Mpro-x10959

> <Approach>
DGM_exploratory_RL

> <ID>
20210628_752

> <SimilarityPheSA_2>
0.628

> <OPTIBRIUM.logD>
3.05117

> <OPTIBRIUM.BBB category>
+

> <OPTIBRIUM.logP>
4.54099

> <OPTIBRIUM.P-gp category>
yes

> <OPTIBRIUM.logS>
1.3918

> <OPTIBRIUM.HIA category>
+

> <OPTIBRIUM.PPB90 category>
high

> <OPTIBRIUM.2D6 affinity category>
medium

> <OPTIBRIUM.hERG pIC50>
5.61239

> <OPTIBRIUM.2C9 pKi>
5.65603

> <OPTIBRIUM.BBB log([brain]:[blood])>
-0.22164

> <OPTIBRIUM.logS @ pH7.4>
2.15205

$$$$
Compound 1482_1_10
haSeeSAR  07122114523D 1   1.00000     0.00000     0
SeeSAR 11.0.2 hazemaj
 52 55  0  0  0  0            999 V2000
   12.6764  -18.1544    5.0717 Cl  0  0  0  0  0  0  0  0  0  0  0  0
   13.9982  -16.9716    4.9189 C   0  0  0  0  0  0  0  0  0  0  0  0
   15.2247  -17.2168    5.5270 C   0  0  0  0  0  0  0  0  0  0  0  0
   13.7919  -15.8076    4.1874 C   0  0  0  0  0  0  0  0  0  0  0  0
   15.4626  -18.7143    6.4588 Cl  0  0  0  0  0  0  0  0  0  0  0  0
   16.2649  -16.2998    5.4126 C   0  0  0  0  0  0  0  0  0  0  0  0
   14.8347  -14.8948    4.0768 C   0  0  0  0  0  0  0  0  0  0  0  0
   16.0636  -15.1330    4.6827 C   0  0  0  0  0  0  0  0  0  0  0  0
   14.6271  -13.6166    3.2802 C   0  0  0  0  0  0  0  0  0  0  0  0
   14.7903  -12.4550    4.1662 N   0  3  1  0  0  0  0  0  0  0  0  0
   15.7470  -11.5127    3.5677 C   0  0  1  0  0  0  0  0  0  0  0  0
   13.4922  -11.7884    4.3444 C   0  0  0  0  0  0  0  0  0  0  0  0
   16.8650  -11.1237    4.5098 C   0  0  0  0  0  0  0  0  0  0  0  0
   16.5587  -12.1320    2.4488 C   0  0  0  0  0  0  0  0  0  0  0  0
   13.2793  -11.4778    5.8205 C   0  0  0  0  0  0  0  0  0  0  0  0
   16.7985  -10.2420    5.3504 O   0  0  0  0  0  0  0  0  0  0  0  0
   17.9723  -11.9277    4.2636 N   0  0  0  0  0  0  0  0  0  0  0  0
   17.6386  -12.8764    3.2019 C   0  0  0  0  0  0  0  0  0  0  0  0
   12.8497  -10.3360    6.3279 O   0  0  0  0  0  0  0  0  0  0  0  0
   13.5028  -12.3756    6.8219 C   0  0  0  0  0  0  0  0  0  0  0  0
   19.2695  -11.8395    4.9491 C   0  0  0  0  0  0  0  0  0  0  0  0
   12.7763  -10.4366    7.6468 C   0  0  0  0  0  0  0  0  0  0  0  0
   13.1758  -11.6922    8.0140 C   0  0  0  0  0  0  0  0  0  0  0  0
   20.2038  -10.9431    4.1523 C   0  0  0  0  0  0  0  0  0  0  0  0
   19.8442  -10.5388    2.8707 C   0  0  0  0  0  0  0  0  0  0  0  0
   21.4086  -10.5387    4.7186 C   0  0  0  0  0  0  0  0  0  0  0  0
   20.7023   -9.7192    2.1448 C   0  0  0  0  0  0  0  0  0  0  0  0
   22.2576   -9.7187    3.9827 C   0  0  0  0  0  0  0  0  0  0  0  0
   21.9091   -9.3090    2.7016 C   0  0  0  0  0  0  0  0  0  0  0  0
   12.9106  -15.6304    3.7492 H   0  0  0  0  0  0  0  0  0  0  0  0
   17.1465  -16.4776    5.8497 H   0  0  0  0  0  0  0  0  0  0  0  0
   16.8027  -14.4654    4.5937 H   0  0  0  0  0  0  0  0  0  0  0  0
   13.7059  -13.6122    2.8910 H   0  0  0  0  0  0  0  0  0  0  0  0
   15.3008  -13.5704    2.5426 H   0  0  0  0  0  0  0  0  0  0  0  0
   15.2707  -10.6969    3.2397 H   0  0  0  0  0  0  0  0  0  0  0  0
   12.7616  -12.3900    4.0215 H   0  0  0  0  0  0  0  0  0  0  0  0
   13.4797  -10.9375    3.8194 H   0  0  0  0  0  0  0  0  0  0  0  0
   16.9508  -11.4295    1.8550 H   0  0  0  0  0  0  0  0  0  0  0  0
   16.0023  -12.7578    1.9022 H   0  0  0  0  0  0  0  0  0  0  0  0
   18.4287  -13.0612    2.6174 H   0  0  0  0  0  0  0  0  0  0  0  0
   17.2935  -13.7365    3.5776 H   0  0  0  0  0  0  0  0  0  0  0  0
   13.8286  -13.3167    6.7318 H   0  0  0  0  0  0  0  0  0  0  0  0
   19.6689  -12.7531    5.0256 H   0  0  0  0  0  0  0  0  0  0  0  0
   19.1382  -11.4556    5.8631 H   0  0  0  0  0  0  0  0  0  0  0  0
   12.4781   -9.7143    8.2706 H   0  0  0  0  0  0  0  0  0  0  0  0
   13.2265  -12.0552    8.9444 H   0  0  0  0  0  0  0  0  0  0  0  0
   18.9752  -10.8351    2.4743 H   0  0  0  0  0  0  0  0  0  0  0  0
   21.6602  -10.8331    5.6406 H   0  0  0  0  0  0  0  0  0  0  0  0
   20.4516   -9.4250    1.2225 H   0  0  0  0  0  0  0  0  0  0  0  0
   23.1264   -9.4215    4.3791 H   0  0  0  0  0  0  0  0  0  0  0  0
   22.5257   -8.7194    2.1800 H   0  0  0  0  0  0  0  0  0  0  0  0
   15.1335  -12.7592    5.0549 H   0  0  0  0  0  0  0  0  0  0  0  0
  1  2  1  0  0  0  0
  2  3  2  0  0  0  0
  2  4  1  0  0  0  0
  3  5  1  0  0  0  0
  3  6  1  0  0  0  0
  4  7  2  0  0  0  0
  6  8  2  0  0  0  0
  7  9  1  0  0  0  0
  9 10  1  0  0  0  0
 10 11  1  0  0  0  0
 10 12  1  0  0  0  0
 11 13  1  0  0  0  0
 11 14  1  0  0  0  0
 12 15  1  0  0  0  0
 13 16  2  0  0  0  0
 13 17  1  0  0  0  0
 14 18  1  0  0  0  0
 15 19  1  0  0  0  0
 15 20  2  0  0  0  0
 17 21  1  0  0  0  0
 19 22  1  0  0  0  0
 20 23  1  0  0  0  0
 21 24  1  0  0  0  0
 24 25  2  0  0  0  0
 24 26  1  0  0  0  0
 25 27  1  0  0  0  0
 26 28  2  0  0  0  0
 27 29  2  0  0  0  0
  7  8  1  0  0  0  0
 17 18  1  0  0  0  0
 22 23  2  0  0  0  0
 28 29  1  0  0  0  0
  4 30  1  0  0  0  0
  6 31  1  0  0  0  0
  8 32  1  0  0  0  0
  9 33  1  0  0  0  0
  9 34  1  0  0  0  0
 11 35  1  0  0  0  0
 12 36  1  0  0  0  0
 12 37  1  0  0  0  0
 14 38  1  0  0  0  0
 14 39  1  0  0  0  0
 18 40  1  0  0  0  0
 18 41  1  0  0  0  0
 20 42  1  0  0  0  0
 21 43  1  0  0  0  0
 21 44  1  0  0  0  0
 22 45  1  0  0  0  0
 23 46  1  0  0  0  0
 25 47  1  0  0  0  0
 26 48  1  0  0  0  0
 27 49  1  0  0  0  0
 28 50  1  0  0  0  0
 29 51  1  0  0  0  0
 10 52  1  0  0  0  0
M  CHG  1  10   1
M  END
> <BIOSOLVEIT.HYDE_ESTIMATED_AFFINITY_LOWER_BOUNDARY [nM]>
172793.378749

> <BIOSOLVEIT.HYDE_ESTIMATED_AFFINITY_UPPER_BOUNDARY [nM]>
17168043.814032

> <BIOSOLVEIT.HYDE_LIGAND_EFFICIENCY range: ++, +, 0, -, -->
--

> <BIOSOLVEIT.HYDE_LIGAND_LIPOPHILIC_EFFICIENCY range: ++, +, 0, -, -->
--

> <BIOSOLVEIT.INTER_CLASH range: red, yellow, green>
green

> <BIOSOLVEIT.INTRA_CLASH range: red, yellow, green>
green

> <BIOSOLVEIT.LOGP>
3.9726

> <BIOSOLVEIT.MOLECULAR WEIGHT>
430.353

> <BIOSOLVEIT.MOLECULE_CHECKSUM>
LTE1Ljc3NjI7MC41NDQwMDg=

> <BIOSOLVEIT.TORSION_QUALITY range: red, yellow, green, not rotatable>
yellow

> <BIOSOLVEIT.TPSA>
37.89

> <BIOSOLVEIT.SEESAR_FAVORITE>
favorite

> <smc_score>
0.625

> <QED_score>
0.505

> <distance>
0.723

> <SimilarityPheSA_1>
0.669

> <Smiles>
O=C1C(N(Cc2ccc(Cl)c(Cl)c2)Cc2ccco2)CCN1Cc1ccccc1

> <Similarity_SkelSpheres>
0.628

> <Cluster No>
332.0

> <QueryID>
ADA-UCB-6c2cb422-1

> <SimilarityPheSA>
0.6687

> <Postera series>
3-aminopyridine-like

> <PDB_code>
Mpro-x10959

> <Approach>
DGM_exploratory_RL

> <ID>
20210628_752

> <SimilarityPheSA_2>
0.628

> <OPTIBRIUM.logD>
3.05117

> <OPTIBRIUM.BBB category>
+

> <OPTIBRIUM.logP>
4.54099

> <OPTIBRIUM.P-gp category>
yes

> <OPTIBRIUM.logS>
1.3918

> <OPTIBRIUM.HIA category>
+

> <OPTIBRIUM.PPB90 category>
high

> <OPTIBRIUM.2D6 affinity category>
medium

> <OPTIBRIUM.hERG pIC50>
5.61239

> <OPTIBRIUM.2C9 pKi>
5.65603

> <OPTIBRIUM.BBB log([brain]:[blood])>
-0.22164

> <OPTIBRIUM.logS @ pH7.4>
2.15205

$$$$
Compound 1510_1_3
haSeeSAR  07122114523D 1   1.00000     0.00000     0
SeeSAR 11.0.2 hazemaj
 36 37  0  0  0  0            999 V2000
   21.6386   -6.4190    3.5122 Cl  0  0  0  0  0  0  0  0  0  0  0  0
   20.7399   -7.9520    3.6102 C   0  0  0  0  0  0  0  0  0  0  0  0
   19.5213   -8.0790    2.9525 C   0  0  0  0  0  0  0  0  0  0  0  0
   21.2601   -9.0132    4.3433 C   0  0  0  0  0  0  0  0  0  0  0  0
   19.0328   -7.0582    2.2549 F   0  0  0  0  0  0  0  0  0  0  0  0
   18.8058   -9.2703    3.0202 C   0  0  0  0  0  0  0  0  0  0  0  0
   20.5424  -10.2026    4.4073 C   0  0  0  0  0  0  0  0  0  0  0  0
   19.3223  -10.3359    3.7513 C   0  0  0  0  0  0  0  0  0  0  0  0
   21.2178  -11.5547    5.3482 Cl  0  0  0  0  0  0  0  0  0  0  0  0
   18.5535  -11.6436    3.8349 C   0  0  0  0  0  0  0  0  0  0  0  0
   17.8883  -11.9266    2.4978 C   0  0  0  0  0  0  0  0  0  0  0  0
   18.5379  -12.3516    1.5825 O   0  0  0  0  0  0  0  0  0  0  0  0
   16.5474  -11.6964    2.3374 N   0  0  0  0  0  0  0  0  0  0  0  0
   15.7755  -11.3630    3.4190 C   0  0  0  0  0  0  0  0  0  0  0  0
   15.9368  -11.8070    1.0048 C   0  0  0  0  0  0  0  0  0  0  0  0
   16.0445  -10.3929    4.0721 O   0  0  0  0  0  0  0  0  0  0  0  0
   14.5783  -12.2221    3.7920 C   0  0  0  0  0  0  0  0  0  0  0  0
   13.8796  -11.6188    4.9362 N   0  0  0  0  0  0  0  0  0  0  0  0
   12.9625  -10.6774    4.8869 N   0  0  0  0  0  0  0  0  0  0  0  0
   14.0732  -11.9542    6.2408 C   0  0  0  0  0  0  0  0  0  0  0  0
   12.5441  -10.3764    6.0453 N   0  0  0  0  0  0  0  0  0  0  0  0
   13.2183  -11.1572    6.9353 C   0  0  0  0  0  0  0  0  0  0  0  0
   13.0487  -11.1383    8.4462 C   0  0  0  0  0  0  0  0  0  0  0  0
   22.1362   -8.9224    4.8168 H   0  0  0  0  0  0  0  0  0  0  0  0
   17.9289   -9.3600    2.5479 H   0  0  0  0  0  0  0  0  0  0  0  0
   17.8547  -11.5746    4.5468 H   0  0  0  0  0  0  0  0  0  0  0  0
   19.1840  -12.3872    4.0575 H   0  0  0  0  0  0  0  0  0  0  0  0
   14.9589  -11.6083    1.0687 H   0  0  0  0  0  0  0  0  0  0  0  0
   16.3700  -11.1534    0.3843 H   0  0  0  0  0  0  0  0  0  0  0  0
   16.0662  -12.7349    0.6549 H   0  0  0  0  0  0  0  0  0  0  0  0
   14.8902  -13.1399    4.0380 H   0  0  0  0  0  0  0  0  0  0  0  0
   13.9540  -12.2800    3.0130 H   0  0  0  0  0  0  0  0  0  0  0  0
   14.7054  -12.6365    6.6079 H   0  0  0  0  0  0  0  0  0  0  0  0
   12.3564  -10.4611    8.6955 H   0  0  0  0  0  0  0  0  0  0  0  0
   12.7591  -12.0423    8.7605 H   0  0  0  0  0  0  0  0  0  0  0  0
   13.9192  -10.8988    8.8764 H   0  0  0  0  0  0  0  0  0  0  0  0
  1  2  1  0  0  0  0
  2  3  2  0  0  0  0
  2  4  1  0  0  0  0
  3  5  1  0  0  0  0
  3  6  1  0  0  0  0
  4  7  2  0  0  0  0
  6  8  2  0  0  0  0
  7  9  1  0  0  0  0
  8 10  1  0  0  0  0
 10 11  1  0  0  0  0
 11 12  2  0  0  0  0
 11 13  1  0  0  0  0
 13 14  1  0  0  0  0
 13 15  1  0  0  0  0
 14 16  2  0  0  0  0
 14 17  1  0  0  0  0
 17 18  1  0  0  0  0
 18 19  1  0  0  0  0
 18 20  1  0  0  0  0
 19 21  2  0  0  0  0
 20 22  2  0  0  0  0
 22 23  1  0  0  0  0
  7  8  1  0  0  0  0
 21 22  1  0  0  0  0
  4 24  1  0  0  0  0
  6 25  1  0  0  0  0
 10 26  1  0  0  0  0
 10 27  1  0  0  0  0
 15 28  1  0  0  0  0
 15 29  1  0  0  0  0
 15 30  1  0  0  0  0
 17 31  1  0  0  0  0
 17 32  1  0  0  0  0
 20 33  1  0  0  0  0
 23 34  1  0  0  0  0
 23 35  1  0  0  0  0
 23 36  1  0  0  0  0
M  END
> <BIOSOLVEIT.HYDE_ESTIMATED_AFFINITY_LOWER_BOUNDARY [nM]>
19592306.802050

> <BIOSOLVEIT.HYDE_ESTIMATED_AFFINITY_UPPER_BOUNDARY [nM]>
1946611519.669107

> <BIOSOLVEIT.HYDE_LIGAND_EFFICIENCY range: ++, +, 0, -, -->
--

> <BIOSOLVEIT.HYDE_LIGAND_LIPOPHILIC_EFFICIENCY range: ++, +, 0, -, -->
--

> <BIOSOLVEIT.INTER_CLASH range: red, yellow, green>
green

> <BIOSOLVEIT.INTRA_CLASH range: red, yellow, green>
yellow

> <BIOSOLVEIT.LOGP>
2.26012

> <BIOSOLVEIT.MOLECULAR WEIGHT>
359.187

> <BIOSOLVEIT.MOLECULE_CHECKSUM>
LTQuMDQ4Nzk7MC4xNzYwMzQ=

> <BIOSOLVEIT.TORSION_QUALITY range: red, yellow, green, not rotatable>
yellow

> <BIOSOLVEIT.TPSA>
68.09

> <BIOSOLVEIT.SEESAR_FAVORITE>
favorite

> <smc_score>
0.75

> <QED_score>
0.786

> <distance>
0.74

> <SimilarityPheSA_1>
0.645

> <Smiles>
Cc1cn(CC(=O)N(C)C(=O)Cc2cc(F)c(Cl)cc2Cl)nn1

> <Similarity_SkelSpheres>
0.554

> <Cluster No>
349.0

> <QueryID>
JAN-GHE-5a013bed-2

> <SimilarityPheSA>
0.6452

> <Postera series>
3-aminopyridine-like

> <PDB_code>
Mpro-x10466

> <Approach>
DGM_exploratory_RL

> <ID>
20210628_780

> <SimilarityPheSA_2>
0.787

> <OPTIBRIUM.logD>
1.76136

> <OPTIBRIUM.BBB category>
-

> <OPTIBRIUM.logP>
1.76136

> <OPTIBRIUM.P-gp category>
no

> <OPTIBRIUM.logS>
2.61305

> <OPTIBRIUM.HIA category>
+

> <OPTIBRIUM.PPB90 category>
low

> <OPTIBRIUM.2D6 affinity category>
low

> <OPTIBRIUM.hERG pIC50>
4.9533

> <OPTIBRIUM.2C9 pKi>
4.75684

> <OPTIBRIUM.BBB log([brain]:[blood])>
-0.609161

> <OPTIBRIUM.logS @ pH7.4>
2.61305

$$$$
Compound 1533_1_1
haSeeSAR  07122114523D 1   1.00000     0.00000     0
SeeSAR 11.0.2 hazemaj
 38 40  0  0  0  0            999 V2000
   21.0349   -6.1453    3.2832 Cl  0  0  0  0  0  0  0  0  0  0  0  0
   21.0061   -7.9044    3.5524 C   0  0  0  0  0  0  0  0  0  0  0  0
   22.1234   -8.5386    4.0857 C   0  0  0  0  0  0  0  0  0  0  0  0
   19.8684   -8.6361    3.2297 C   0  0  0  0  0  0  0  0  0  0  0  0
   23.5735   -7.5907    4.4956 Cl  0  0  0  0  0  0  0  0  0  0  0  0
   22.1222   -9.9124    4.3033 C   0  0  0  0  0  0  0  0  0  0  0  0
   19.8711  -10.0093    3.4492 C   0  0  0  0  0  0  0  0  0  0  0  0
   20.9860  -10.6483    3.9814 C   0  0  0  0  0  0  0  0  0  0  0  0
   18.6297  -10.8132    3.0974 C   0  0  0  0  0  0  0  0  0  0  0  0
   17.6145  -11.1186    4.1877 C   0  0  0  0  0  0  0  0  0  0  0  0
   18.8172  -11.8807    2.0570 C   0  0  0  0  0  0  0  0  0  0  0  0
   18.0786  -10.6189    1.7134 C   0  0  0  0  0  0  0  0  0  0  0  0
   16.7846  -10.2689    4.5114 O   0  0  0  0  0  0  0  0  0  0  0  0
   17.6231  -12.2975    4.7881 N   0  0  0  0  0  0  0  0  0  0  0  0
   16.6417  -12.5926    5.8420 C   0  0  0  0  0  0  0  0  0  0  0  0
   15.3037  -12.9346    5.2069 C   0  0  0  0  0  0  0  0  0  0  0  0
   14.2414  -11.9705    5.7123 C   0  0  0  0  0  0  0  0  0  0  0  0
   14.0002  -11.6540    7.0137 N   0  0  0  0  0  0  0  0  0  0  0  0
   13.3632  -11.2734    4.9381 C   0  0  0  0  0  0  0  0  0  0  0  0
   13.0089  -10.7959    6.9988 C   0  0  0  0  0  0  0  0  0  0  0  0
   12.6268  -10.5653    5.7634 O   0  0  0  0  0  0  0  0  0  0  0  0
   12.3979  -10.1643    8.2389 C   0  0  0  0  0  0  0  0  0  0  0  0
   19.0632   -8.1830    2.8468 H   0  0  0  0  0  0  0  0  0  0  0  0
   22.9274  -10.3653    4.6860 H   0  0  0  0  0  0  0  0  0  0  0  0
   20.9710  -11.6367    4.1327 H   0  0  0  0  0  0  0  0  0  0  0  0
   18.3210  -12.7455    2.1330 H   0  0  0  0  0  0  0  0  0  0  0  0
   19.7244  -12.0496    1.6718 H   0  0  0  0  0  0  0  0  0  0  0  0
   18.4941   -9.9478    1.0995 H   0  0  0  0  0  0  0  0  0  0  0  0
   17.0907  -10.6437    1.5606 H   0  0  0  0  0  0  0  0  0  0  0  0
   18.2972  -12.9876    4.5252 H   0  0  0  0  0  0  0  0  0  0  0  0
   16.5356  -11.7925    6.4324 H   0  0  0  0  0  0  0  0  0  0  0  0
   16.9603  -13.3686    6.3864 H   0  0  0  0  0  0  0  0  0  0  0  0
   15.0482  -13.8701    5.4512 H   0  0  0  0  0  0  0  0  0  0  0  0
   15.3774  -12.8581    4.2126 H   0  0  0  0  0  0  0  0  0  0  0  0
   13.2932  -11.2965    3.9410 H   0  0  0  0  0  0  0  0  0  0  0  0
   11.6594   -9.5464    7.9689 H   0  0  0  0  0  0  0  0  0  0  0  0
   12.0322  -10.8813    8.8325 H   0  0  0  0  0  0  0  0  0  0  0  0
   13.0998   -9.6497    8.7312 H   0  0  0  0  0  0  0  0  0  0  0  0
  1  2  1  0  0  0  0
  2  3  2  0  0  0  0
  2  4  1  0  0  0  0
  3  5  1  0  0  0  0
  3  6  1  0  0  0  0
  4  7  2  0  0  0  0
  6  8  2  0  0  0  0
  7  9  1  0  0  0  0
  9 10  1  0  0  0  0
  9 11  1  0  0  0  0
  9 12  1  0  0  0  0
 10 13  2  0  0  0  0
 10 14  1  0  0  0  0
 14 15  1  0  0  0  0
 15 16  1  0  0  0  0
 16 17  1  0  0  0  0
 17 18  1  0  0  0  0
 17 19  2  0  0  0  0
 18 20  2  0  0  0  0
 19 21  1  0  0  0  0
 20 22  1  0  0  0  0
  7  8  1  0  0  0  0
 11 12  1  0  0  0  0
 20 21  1  0  0  0  0
  4 23  1  0  0  0  0
  6 24  1  0  0  0  0
  8 25  1  0  0  0  0
 11 26  1  0  0  0  0
 11 27  1  0  0  0  0
 12 28  1  0  0  0  0
 12 29  1  0  0  0  0
 14 30  1  0  0  0  0
 15 31  1  0  0  0  0
 15 32  1  0  0  0  0
 16 33  1  0  0  0  0
 16 34  1  0  0  0  0
 19 35  1  0  0  0  0
 22 36  1  0  0  0  0
 22 37  1  0  0  0  0
 22 38  1  0  0  0  0
M  END
> <BIOSOLVEIT.HYDE_ESTIMATED_AFFINITY_LOWER_BOUNDARY [nM]>
2756993.993652

> <BIOSOLVEIT.HYDE_ESTIMATED_AFFINITY_UPPER_BOUNDARY [nM]>
273923653.907825

> <BIOSOLVEIT.HYDE_LIGAND_EFFICIENCY range: ++, +, 0, -, -->
--

> <BIOSOLVEIT.HYDE_LIGAND_LIPOPHILIC_EFFICIENCY range: ++, +, 0, -, -->
--

> <BIOSOLVEIT.INTER_CLASH range: red, yellow, green>
green

> <BIOSOLVEIT.INTRA_CLASH range: red, yellow, green>
green

> <BIOSOLVEIT.LOGP>
3.68032

> <BIOSOLVEIT.MOLECULAR WEIGHT>
339.22

> <BIOSOLVEIT.MOLECULE_CHECKSUM>
LTguOTEwMDI7MC40MDUwMDE=

> <BIOSOLVEIT.TORSION_QUALITY range: red, yellow, green, not rotatable>
yellow

> <BIOSOLVEIT.TPSA>
55.13

> <BIOSOLVEIT.SEESAR_FAVORITE>
favorite

> <smc_score>
0.688

> <QED_score>
0.904

> <distance>
0.738

> <SimilarityPheSA_1>
0.674

> <Smiles>
Cc1nc(CCNC(=O)C2(c3ccc(Cl)c(Cl)c3)CC2)co1

> <Similarity_SkelSpheres>
0.589

> <Cluster No>
362.0

> <QueryID>
MAT-POS-b3e365b9-1, VLA-UCB-1dbca3b4-15

> <SimilarityPheSA>
0.6738

> <Postera series>
3-aminopyridine-like

> <PDB_code>
Mpro-x11612, Mpro-x11498

> <Approach>
DGM_exploratory_RL

> <ID>
20210628_803

> <SimilarityPheSA_2>
0.736

> <OPTIBRIUM.logD>
4.114

> <OPTIBRIUM.BBB category>
+

> <OPTIBRIUM.logP>
4.114

> <OPTIBRIUM.P-gp category>
no

> <OPTIBRIUM.logS>
1.31276

> <OPTIBRIUM.HIA category>
+

> <OPTIBRIUM.PPB90 category>
high

> <OPTIBRIUM.2D6 affinity category>
medium

> <OPTIBRIUM.hERG pIC50>
4.5265

> <OPTIBRIUM.2C9 pKi>
5.28176

> <OPTIBRIUM.BBB log([brain]:[blood])>
-0.066237

> <OPTIBRIUM.logS @ pH7.4>
1.31276

$$$$
Compound 1569_1_1
haSeeSAR  07122114523D 1   1.00000     0.00000     0
SeeSAR 11.0.2 hazemaj
 37 38  0  0  0  0            999 V2000
   21.9629   -6.1428    3.3853 Cl  0  0  0  0  0  0  0  0  0  0  0  0
   21.2350   -7.7089    3.8143 C   0  0  0  0  0  0  0  0  0  0  0  0
   19.9639   -8.0335    3.3555 C   0  0  0  0  0  0  0  0  0  0  0  0
   21.9471   -8.5997    4.6106 C   0  0  0  0  0  0  0  0  0  0  0  0
   19.0707   -6.8777    2.3383 Cl  0  0  0  0  0  0  0  0  0  0  0  0
   19.3805   -9.2526    3.6833 C   0  0  0  0  0  0  0  0  0  0  0  0
   21.3652   -9.8196    4.9388 C   0  0  0  0  0  0  0  0  0  0  0  0
   20.0935  -10.1421    4.4793 C   0  0  0  0  0  0  0  0  0  0  0  0
   22.0357  -10.6800    5.6974 F   0  0  0  0  0  0  0  0  0  0  0  0
   19.4729  -11.4791    4.8492 C   0  0  0  0  0  0  0  0  0  0  0  0
   20.3941  -12.4345    4.7624 F   0  0  0  0  0  0  0  0  0  0  0  0
   18.4734  -11.7499    4.0146 F   0  0  0  0  0  0  0  0  0  0  0  0
   18.9418  -11.4149    6.2719 C   0  0  0  0  0  0  0  0  0  0  0  0
   17.7327  -12.2437    6.3814 N   0  0  0  0  0  0  0  0  0  0  0  0
   16.5495  -11.7294    6.0883 C   0  0  0  0  0  0  0  0  0  0  0  0
   16.4612  -10.5569    5.7239 O   0  0  0  0  0  0  0  0  0  0  0  0
   15.2991  -12.5863    6.2015 C   0  0  0  0  0  0  0  0  0  0  0  0
   14.0722  -11.7338    5.9138 C   0  0  0  0  0  0  0  0  0  0  0  0
   13.2057  -11.1974    6.8093 C   0  0  0  0  0  0  0  0  0  0  0  0
   13.5897  -11.3290    4.6565 C   0  0  0  0  0  0  0  0  0  0  0  0
   12.2884  -10.5319    6.1486 O   0  0  0  0  0  0  0  0  0  0  0  0
   13.2873  -11.3461    8.3202 C   0  0  0  0  0  0  0  0  0  0  0  0
   12.5185  -10.6208    4.9054 N   0  0  0  0  0  0  0  0  0  0  0  0
   14.2012  -11.6605    3.3049 C   0  0  0  0  0  0  0  0  0  0  0  0
   22.8616   -8.3670    4.9415 H   0  0  0  0  0  0  0  0  0  0  0  0
   18.4658   -9.4850    3.3527 H   0  0  0  0  0  0  0  0  0  0  0  0
   18.7187  -10.4677    6.5020 H   0  0  0  0  0  0  0  0  0  0  0  0
   19.6381  -11.7562    6.9033 H   0  0  0  0  0  0  0  0  0  0  0  0
   17.8044  -13.1961    6.6773 H   0  0  0  0  0  0  0  0  0  0  0  0
   15.2349  -12.9616    7.1262 H   0  0  0  0  0  0  0  0  0  0  0  0
   15.3472  -13.3351    5.5405 H   0  0  0  0  0  0  0  0  0  0  0  0
   12.5277  -10.8537    8.7451 H   0  0  0  0  0  0  0  0  0  0  0  0
   13.2344  -12.3147    8.5632 H   0  0  0  0  0  0  0  0  0  0  0  0
   14.1537  -10.9676    8.6461 H   0  0  0  0  0  0  0  0  0  0  0  0
   13.6528  -11.2439    2.5797 H   0  0  0  0  0  0  0  0  0  0  0  0
   15.1341  -11.3028    3.2644 H   0  0  0  0  0  0  0  0  0  0  0  0
   14.2189  -12.6526    3.1813 H   0  0  0  0  0  0  0  0  0  0  0  0
  1  2  1  0  0  0  0
  2  3  2  0  0  0  0
  2  4  1  0  0  0  0
  3  5  1  0  0  0  0
  3  6  1  0  0  0  0
  4  7  2  0  0  0  0
  6  8  2  0  0  0  0
  7  9  1  0  0  0  0
  8 10  1  0  0  0  0
 10 11  1  0  0  0  0
 10 12  1  0  0  0  0
 10 13  1  0  0  0  0
 13 14  1  0  0  0  0
 14 15  1  0  0  0  0
 15 16  2  0  0  0  0
 15 17  1  0  0  0  0
 17 18  1  0  0  0  0
 18 19  2  0  0  0  0
 18 20  1  0  0  0  0
 19 21  1  0  0  0  0
 19 22  1  0  0  0  0
 20 23  2  0  0  0  0
 20 24  1  0  0  0  0
  7  8  1  0  0  0  0
 21 23  1  0  0  0  0
  4 25  1  0  0  0  0
  6 26  1  0  0  0  0
 13 27  1  0  0  0  0
 13 28  1  0  0  0  0
 14 29  1  0  0  0  0
 17 30  1  0  0  0  0
 17 31  1  0  0  0  0
 22 32  1  0  0  0  0
 22 33  1  0  0  0  0
 22 34  1  0  0  0  0
 24 35  1  0  0  0  0
 24 36  1  0  0  0  0
 24 37  1  0  0  0  0
M  END
> <BIOSOLVEIT.HYDE_ESTIMATED_AFFINITY_LOWER_BOUNDARY [nM]>
188751718.912213

> <BIOSOLVEIT.HYDE_ESTIMATED_AFFINITY_UPPER_BOUNDARY [nM]>
18753599262.411167

> <BIOSOLVEIT.HYDE_LIGAND_EFFICIENCY range: ++, +, 0, -, -->
--

> <BIOSOLVEIT.HYDE_LIGAND_LIPOPHILIC_EFFICIENCY range: ++, +, 0, -, -->
--

> <BIOSOLVEIT.INTER_CLASH range: red, yellow, green>
green

> <BIOSOLVEIT.INTRA_CLASH range: red, yellow, green>
yellow

> <BIOSOLVEIT.LOGP>
4.18804

> <BIOSOLVEIT.MOLECULAR WEIGHT>
381.18

> <BIOSOLVEIT.MOLECULE_CHECKSUM>
MS41NjY3ODsw

> <BIOSOLVEIT.TORSION_QUALITY range: red, yellow, green, not rotatable>
green

> <BIOSOLVEIT.TPSA>
55.13

> <BIOSOLVEIT.SEESAR_FAVORITE>
favorite

> <smc_score>
0.688

> <QED_score>
0.791

> <distance>
0.75

> <SimilarityPheSA_1>
0.688

> <Smiles>
Cc1noc(C)c1CC(=O)NCC(F)(F)c1cc(Cl)c(Cl)cc1F

> <Similarity_SkelSpheres>
0.558

> <Cluster No>
382.0

> <QueryID>
JAG-UCB-a3ef7265-20

> <SimilarityPheSA>
0.6881

> <Postera series>
3-aminopyridine-like

> <PDB_code>
Mpro-x10324

> <Approach>
DGM_exploratory_RL

> <ID>
20210628_839

> <SimilarityPheSA_2>
0.664

> <OPTIBRIUM.logD>
4.1465

> <OPTIBRIUM.BBB category>
+

> <OPTIBRIUM.logP>
4.1465

> <OPTIBRIUM.P-gp category>
no

> <OPTIBRIUM.logS>
0.682812

> <OPTIBRIUM.HIA category>
+

> <OPTIBRIUM.PPB90 category>
high

> <OPTIBRIUM.2D6 affinity category>
high

> <OPTIBRIUM.hERG pIC50>
4.62557

> <OPTIBRIUM.2C9 pKi>
5.53401

> <OPTIBRIUM.BBB log([brain]:[blood])>
0.012332

> <OPTIBRIUM.logS @ pH7.4>
0.682812

$$$$
Compound 1569_1_3
haSeeSAR  07122114523D 1   1.00000     0.00000     0
SeeSAR 11.0.2 hazemaj
 37 38  0  0  0  0            999 V2000
   22.0030   -6.2904    3.5092 Cl  0  0  0  0  0  0  0  0  0  0  0  0
   21.2935   -7.8810    3.8743 C   0  0  0  0  0  0  0  0  0  0  0  0
   20.0025   -8.1790    3.4547 C   0  0  0  0  0  0  0  0  0  0  0  0
   22.0400   -8.8176    4.5816 C   0  0  0  0  0  0  0  0  0  0  0  0
   19.0655   -6.9646    2.5517 Cl  0  0  0  0  0  0  0  0  0  0  0  0
   19.4331   -9.4166    3.7336 C   0  0  0  0  0  0  0  0  0  0  0  0
   21.4722  -10.0562    4.8607 C   0  0  0  0  0  0  0  0  0  0  0  0
   20.1805  -10.3520    4.4406 C   0  0  0  0  0  0  0  0  0  0  0  0
   22.1752  -10.9603    5.5341 F   0  0  0  0  0  0  0  0  0  0  0  0
   19.5757  -11.7102    4.7557 C   0  0  0  0  0  0  0  0  0  0  0  0
   19.3908  -11.8192    6.0683 F   0  0  0  0  0  0  0  0  0  0  0  0
   20.3998  -12.6690    4.3430 F   0  0  0  0  0  0  0  0  0  0  0  0
   18.2404  -11.8480    4.0428 C   0  0  0  0  0  0  0  0  0  0  0  0
   17.2729  -12.5007    4.9366 N   0  0  0  0  0  0  0  0  0  0  0  0
   16.3598  -11.7777    5.5640 C   0  0  0  0  0  0  0  0  0  0  0  0
   16.3203  -10.5583    5.3993 O   0  0  0  0  0  0  0  0  0  0  0  0
   15.3593  -12.4525    6.4881 C   0  0  0  0  0  0  0  0  0  0  0  0
   14.0469  -11.6831    6.4633 C   0  0  0  0  0  0  0  0  0  0  0  0
   13.3581  -11.2516    5.3770 C   0  0  0  0  0  0  0  0  0  0  0  0
   13.2818  -11.2642    7.5662 C   0  0  0  0  0  0  0  0  0  0  0  0
   12.2790  -10.6318    5.7916 O   0  0  0  0  0  0  0  0  0  0  0  0
   13.7712  -11.4538    3.9278 C   0  0  0  0  0  0  0  0  0  0  0  0
   12.2499  -10.6409    7.0587 N   0  0  0  0  0  0  0  0  0  0  0  0
   13.6082  -11.4971    9.0325 C   0  0  0  0  0  0  0  0  0  0  0  0
   22.9688   -8.6041    4.8843 H   0  0  0  0  0  0  0  0  0  0  0  0
   18.5040   -9.6299    3.4313 H   0  0  0  0  0  0  0  0  0  0  0  0
   18.3585  -12.4014    3.2183 H   0  0  0  0  0  0  0  0  0  0  0  0
   17.9022  -10.9415    3.7903 H   0  0  0  0  0  0  0  0  0  0  0  0
   17.3048  -13.4912    5.0703 H   0  0  0  0  0  0  0  0  0  0  0  0
   15.7214  -12.4638    7.4202 H   0  0  0  0  0  0  0  0  0  0  0  0
   15.2015  -13.3907    6.1804 H   0  0  0  0  0  0  0  0  0  0  0  0
   13.0889  -11.0392    3.3257 H   0  0  0  0  0  0  0  0  0  0  0  0
   14.6599  -11.0227    3.7712 H   0  0  0  0  0  0  0  0  0  0  0  0
   13.8368  -12.4325    3.7333 H   0  0  0  0  0  0  0  0  0  0  0  0
   12.8925  -11.0923    9.6017 H   0  0  0  0  0  0  0  0  0  0  0  0
   13.6598  -12.4797    9.2106 H   0  0  0  0  0  0  0  0  0  0  0  0
   14.4870  -11.0722    9.2500 H   0  0  0  0  0  0  0  0  0  0  0  0
  1  2  1  0  0  0  0
  2  3  2  0  0  0  0
  2  4  1  0  0  0  0
  3  5  1  0  0  0  0
  3  6  1  0  0  0  0
  4  7  2  0  0  0  0
  6  8  2  0  0  0  0
  7  9  1  0  0  0  0
  8 10  1  0  0  0  0
 10 11  1  0  0  0  0
 10 12  1  0  0  0  0
 10 13  1  0  0  0  0
 13 14  1  0  0  0  0
 14 15  1  0  0  0  0
 15 16  2  0  0  0  0
 15 17  1  0  0  0  0
 17 18  1  0  0  0  0
 18 19  2  0  0  0  0
 18 20  1  0  0  0  0
 19 21  1  0  0  0  0
 19 22  1  0  0  0  0
 20 23  2  0  0  0  0
 20 24  1  0  0  0  0
  7  8  1  0  0  0  0
 21 23  1  0  0  0  0
  4 25  1  0  0  0  0
  6 26  1  0  0  0  0
 13 27  1  0  0  0  0
 13 28  1  0  0  0  0
 14 29  1  0  0  0  0
 17 30  1  0  0  0  0
 17 31  1  0  0  0  0
 22 32  1  0  0  0  0
 22 33  1  0  0  0  0
 22 34  1  0  0  0  0
 24 35  1  0  0  0  0
 24 36  1  0  0  0  0
 24 37  1  0  0  0  0
M  END
> <BIOSOLVEIT.HYDE_ESTIMATED_AFFINITY_LOWER_BOUNDARY [nM]>
450045351.180434

> <BIOSOLVEIT.HYDE_ESTIMATED_AFFINITY_UPPER_BOUNDARY [nM]>
44714666518.477409

> <BIOSOLVEIT.HYDE_LIGAND_EFFICIENCY range: ++, +, 0, -, -->
--

> <BIOSOLVEIT.HYDE_LIGAND_LIPOPHILIC_EFFICIENCY range: ++, +, 0, -, -->
--

> <BIOSOLVEIT.INTER_CLASH range: red, yellow, green>
green

> <BIOSOLVEIT.INTRA_CLASH range: red, yellow, green>
green

> <BIOSOLVEIT.LOGP>
4.18804

> <BIOSOLVEIT.MOLECULAR WEIGHT>
381.18

> <BIOSOLVEIT.MOLECULE_CHECKSUM>
My43MjA3ODsw

> <BIOSOLVEIT.TORSION_QUALITY range: red, yellow, green, not rotatable>
red

> <BIOSOLVEIT.TPSA>
55.13

> <BIOSOLVEIT.SEESAR_FAVORITE>
favorite

> <smc_score>
0.688

> <QED_score>
0.791

> <distance>
0.75

> <SimilarityPheSA_1>
0.688

> <Smiles>
Cc1noc(C)c1CC(=O)NCC(F)(F)c1cc(Cl)c(Cl)cc1F

> <Similarity_SkelSpheres>
0.558

> <Cluster No>
382.0

> <QueryID>
JAG-UCB-a3ef7265-20

> <SimilarityPheSA>
0.6881

> <Postera series>
3-aminopyridine-like

> <PDB_code>
Mpro-x10324

> <Approach>
DGM_exploratory_RL

> <ID>
20210628_839

> <SimilarityPheSA_2>
0.664

> <OPTIBRIUM.logD>
4.1465

> <OPTIBRIUM.BBB category>
+

> <OPTIBRIUM.logP>
4.1465

> <OPTIBRIUM.P-gp category>
no

> <OPTIBRIUM.logS>
0.682812

> <OPTIBRIUM.HIA category>
+

> <OPTIBRIUM.PPB90 category>
high

> <OPTIBRIUM.2D6 affinity category>
high

> <OPTIBRIUM.hERG pIC50>
4.62557

> <OPTIBRIUM.2C9 pKi>
5.53401

> <OPTIBRIUM.BBB log([brain]:[blood])>
0.012332

> <OPTIBRIUM.logS @ pH7.4>
0.682812

$$$$
Compound 1576_1_1
haSeeSAR  07122114523D 1   1.00000     0.00000     0
SeeSAR 11.0.2 hazemaj
 36 37  0  0  0  0            999 V2000
   20.8793  -11.9882    5.1595 Cl  0  0  0  0  0  0  0  0  0  0  0  0
   20.3773  -10.5157    4.2945 C   0  0  0  0  0  0  0  0  0  0  0  0
   19.3638  -10.5719    3.3437 C   0  0  0  0  0  0  0  0  0  0  0  0
   21.0091   -9.3102    4.5811 C   0  0  0  0  0  0  0  0  0  0  0  0
   18.9669   -9.4244    2.6656 C   0  0  0  0  0  0  0  0  0  0  0  0
   18.6738  -11.8901    3.0317 C   0  0  0  0  0  0  0  0  0  0  0  0
   20.6135   -8.1616    3.9033 C   0  0  0  0  0  0  0  0  0  0  0  0
   19.5995   -8.2195    2.9533 C   0  0  0  0  0  0  0  0  0  0  0  0
   17.6074  -12.1297    4.0146 N   0  0  0  0  0  0  0  0  0  0  0  0
   21.2098   -7.0037    4.1688 F   0  0  0  0  0  0  0  0  0  0  0  0
   19.2330   -7.1119    2.3146 F   0  0  0  0  0  0  0  0  0  0  0  0
   16.5675  -11.3139    4.0744 C   0  0  0  0  0  0  0  0  0  0  0  0
   17.6962  -13.2755    4.9312 C   0  0  0  0  0  0  0  0  0  0  0  0
   16.5206  -10.4388    4.9389 O   0  0  0  0  0  0  0  0  0  0  0  0
   15.4308  -11.4572    3.0755 C   0  0  0  0  0  0  0  0  0  0  0  0
   14.3454  -12.3421    3.6666 C   0  0  0  0  0  0  0  0  0  0  0  0
   13.7324  -11.6531    4.8757 C   0  0  0  0  0  0  0  0  0  0  0  0
   12.9049  -10.6347    4.8506 O   0  0  0  0  0  0  0  0  0  0  0  0
   13.9529  -11.9839    6.1227 N   0  0  0  0  0  0  0  0  0  0  0  0
   12.5845  -10.3163    6.0401 N   0  0  0  0  0  0  0  0  0  0  0  0
   13.2089  -11.1184    6.8675 C   0  0  0  0  0  0  0  0  0  0  0  0
   13.1117  -11.0975    8.3834 C   0  0  0  0  0  0  0  0  0  0  0  0
   21.7376   -9.2697    5.2650 H   0  0  0  0  0  0  0  0  0  0  0  0
   18.2382   -9.4648    1.9820 H   0  0  0  0  0  0  0  0  0  0  0  0
   19.3408  -12.6340    3.0757 H   0  0  0  0  0  0  0  0  0  0  0  0
   18.2787  -11.8505    2.1140 H   0  0  0  0  0  0  0  0  0  0  0  0
   16.8936  -13.2884    5.5276 H   0  0  0  0  0  0  0  0  0  0  0  0
   17.7321  -14.1234    4.4024 H   0  0  0  0  0  0  0  0  0  0  0  0
   18.5234  -13.1942    5.4872 H   0  0  0  0  0  0  0  0  0  0  0  0
   15.7769  -11.8715    2.2337 H   0  0  0  0  0  0  0  0  0  0  0  0
   15.0508  -10.5550    2.8713 H   0  0  0  0  0  0  0  0  0  0  0  0
   14.7434  -13.2156    3.9469 H   0  0  0  0  0  0  0  0  0  0  0  0
   13.6365  -12.5037    2.9801 H   0  0  0  0  0  0  0  0  0  0  0  0
   12.4974  -10.3616    8.6679 H   0  0  0  0  0  0  0  0  0  0  0  0
   12.7541  -11.9738    8.7065 H   0  0  0  0  0  0  0  0  0  0  0  0
   14.0195  -10.9437    8.7736 H   0  0  0  0  0  0  0  0  0  0  0  0
  1  2  1  0  0  0  0
  2  3  2  0  0  0  0
  2  4  1  0  0  0  0
  3  5  1  0  0  0  0
  3  6  1  0  0  0  0
  4  7  2  0  0  0  0
  5  8  2  0  0  0  0
  6  9  1  0  0  0  0
  7 10  1  0  0  0  0
  8 11  1  0  0  0  0
  9 12  1  0  0  0  0
  9 13  1  0  0  0  0
 12 14  2  0  0  0  0
 12 15  1  0  0  0  0
 15 16  1  0  0  0  0
 16 17  1  0  0  0  0
 17 18  1  0  0  0  0
 17 19  2  0  0  0  0
 18 20  1  0  0  0  0
 19 21  1  0  0  0  0
 21 22  1  0  0  0  0
  7  8  1  0  0  0  0
 20 21  2  0  0  0  0
  4 23  1  0  0  0  0
  5 24  1  0  0  0  0
  6 25  1  0  0  0  0
  6 26  1  0  0  0  0
 13 27  1  0  0  0  0
 13 28  1  0  0  0  0
 13 29  1  0  0  0  0
 15 30  1  0  0  0  0
 15 31  1  0  0  0  0
 16 32  1  0  0  0  0
 16 33  1  0  0  0  0
 22 34  1  0  0  0  0
 22 35  1  0  0  0  0
 22 36  1  0  0  0  0
M  END
> <BIOSOLVEIT.HYDE_ESTIMATED_AFFINITY_LOWER_BOUNDARY [nM]>
5343650.622496

> <BIOSOLVEIT.HYDE_ESTIMATED_AFFINITY_UPPER_BOUNDARY [nM]>
530923283.507832

> <BIOSOLVEIT.HYDE_LIGAND_EFFICIENCY range: ++, +, 0, -, -->
--

> <BIOSOLVEIT.HYDE_LIGAND_LIPOPHILIC_EFFICIENCY range: ++, +, 0, -, -->
--

> <BIOSOLVEIT.INTER_CLASH range: red, yellow, green>
green

> <BIOSOLVEIT.INTRA_CLASH range: red, yellow, green>
green

> <BIOSOLVEIT.LOGP>
2.90082

> <BIOSOLVEIT.MOLECULAR WEIGHT>
329.733

> <BIOSOLVEIT.MOLECULE_CHECKSUM>
LTcuMjY5NTI7MC4zMzA0MzM=

> <BIOSOLVEIT.TORSION_QUALITY range: red, yellow, green, not rotatable>
yellow

> <BIOSOLVEIT.TPSA>
59.23

> <BIOSOLVEIT.SEESAR_FAVORITE>
favorite

> <smc_score>
0.688

> <QED_score>
0.791

> <distance>
0.739

> <SimilarityPheSA_1>
0.663

> <Smiles>
Cc1noc(CCC(=O)N(C)Cc2cc(F)c(F)cc2Cl)n1

> <Similarity_SkelSpheres>
0.541

> <Cluster No>
385.0

> <QueryID>
JAN-GHE-5a013bed-2

> <SimilarityPheSA>
0.6629

> <Postera series>
3-aminopyridine-like

> <PDB_code>
Mpro-x10466

> <Approach>
DGM_exploratory_RL

> <ID>
20210628_846

> <SimilarityPheSA_2>
0.745

> <OPTIBRIUM.logD>
2.55676

> <OPTIBRIUM.BBB category>
-

> <OPTIBRIUM.logP>
2.55676

> <OPTIBRIUM.P-gp category>
no

> <OPTIBRIUM.logS>
2.06229

> <OPTIBRIUM.HIA category>
+

> <OPTIBRIUM.PPB90 category>
low

> <OPTIBRIUM.2D6 affinity category>
medium

> <OPTIBRIUM.hERG pIC50>
5.44009

> <OPTIBRIUM.2C9 pKi>
4.75038

> <OPTIBRIUM.BBB log([brain]:[blood])>
-0.460813

> <OPTIBRIUM.logS @ pH7.4>
2.06229

$$$$
Compound 1576_1_2
haSeeSAR  07122114523D 1   1.00000     0.00000     0
SeeSAR 11.0.2 hazemaj
 36 37  0  0  0  0            999 V2000
   21.8609  -10.5728    5.2841 Cl  0  0  0  0  0  0  0  0  0  0  0  0
   21.0102   -9.3419    4.3200 C   0  0  0  0  0  0  0  0  0  0  0  0
   19.8201   -9.6570    3.6729 C   0  0  0  0  0  0  0  0  0  0  0  0
   21.5489   -8.0632    4.2223 C   0  0  0  0  0  0  0  0  0  0  0  0
   19.1509   -8.6988    2.9191 C   0  0  0  0  0  0  0  0  0  0  0  0
   19.2325  -11.0548    3.7810 C   0  0  0  0  0  0  0  0  0  0  0  0
   20.8808   -7.1039    3.4681 C   0  0  0  0  0  0  0  0  0  0  0  0
   19.6905   -7.4205    2.8222 C   0  0  0  0  0  0  0  0  0  0  0  0
   18.0321  -11.1482    2.9374 N   0  0  0  0  0  0  0  0  0  0  0  0
   21.3856   -5.8785    3.3676 F   0  0  0  0  0  0  0  0  0  0  0  0
   19.0642   -6.4915    2.1056 F   0  0  0  0  0  0  0  0  0  0  0  0
   16.8425  -10.8742    3.4472 C   0  0  0  0  0  0  0  0  0  0  0  0
   18.1538  -11.5462    1.5276 C   0  0  0  0  0  0  0  0  0  0  0  0
   16.7411  -10.0767    4.3794 O   0  0  0  0  0  0  0  0  0  0  0  0
   15.6007  -11.5439    2.8817 C   0  0  0  0  0  0  0  0  0  0  0  0
   15.0280  -12.5027    3.9128 C   0  0  0  0  0  0  0  0  0  0  0  0
   14.1378  -11.7361    4.8783 C   0  0  0  0  0  0  0  0  0  0  0  0
   13.2231  -10.8524    4.5541 O   0  0  0  0  0  0  0  0  0  0  0  0
   14.1663  -11.8516    6.1817 N   0  0  0  0  0  0  0  0  0  0  0  0
   12.6626  -10.4126    5.6084 N   0  0  0  0  0  0  0  0  0  0  0  0
   13.2119  -10.9962    6.6454 C   0  0  0  0  0  0  0  0  0  0  0  0
   12.8434  -10.7712    8.1019 C   0  0  0  0  0  0  0  0  0  0  0  0
   22.4045   -7.8366    4.6876 H   0  0  0  0  0  0  0  0  0  0  0  0
   18.2951   -8.9254    2.4538 H   0  0  0  0  0  0  0  0  0  0  0  0
   18.9865  -11.2404    4.7323 H   0  0  0  0  0  0  0  0  0  0  0  0
   19.9082  -11.7251    3.4744 H   0  0  0  0  0  0  0  0  0  0  0  0
   17.2474  -11.5583    1.1053 H   0  0  0  0  0  0  0  0  0  0  0  0
   18.7373  -10.8924    1.0458 H   0  0  0  0  0  0  0  0  0  0  0  0
   18.5594  -12.4586    1.4725 H   0  0  0  0  0  0  0  0  0  0  0  0
   15.8427  -12.0503    2.0539 H   0  0  0  0  0  0  0  0  0  0  0  0
   14.9185  -10.8476    2.6589 H   0  0  0  0  0  0  0  0  0  0  0  0
   15.7754  -12.9334    4.4188 H   0  0  0  0  0  0  0  0  0  0  0  0
   14.4893  -13.2069    3.4503 H   0  0  0  0  0  0  0  0  0  0  0  0
   12.1123  -10.0913    8.1596 H   0  0  0  0  0  0  0  0  0  0  0  0
   12.5306  -11.6320    8.5034 H   0  0  0  0  0  0  0  0  0  0  0  0
   13.6447  -10.4421    8.6015 H   0  0  0  0  0  0  0  0  0  0  0  0
  1  2  1  0  0  0  0
  2  3  2  0  0  0  0
  2  4  1  0  0  0  0
  3  5  1  0  0  0  0
  3  6  1  0  0  0  0
  4  7  2  0  0  0  0
  5  8  2  0  0  0  0
  6  9  1  0  0  0  0
  7 10  1  0  0  0  0
  8 11  1  0  0  0  0
  9 12  1  0  0  0  0
  9 13  1  0  0  0  0
 12 14  2  0  0  0  0
 12 15  1  0  0  0  0
 15 16  1  0  0  0  0
 16 17  1  0  0  0  0
 17 18  1  0  0  0  0
 17 19  2  0  0  0  0
 18 20  1  0  0  0  0
 19 21  1  0  0  0  0
 21 22  1  0  0  0  0
  7  8  1  0  0  0  0
 20 21  2  0  0  0  0
  4 23  1  0  0  0  0
  5 24  1  0  0  0  0
  6 25  1  0  0  0  0
  6 26  1  0  0  0  0
 13 27  1  0  0  0  0
 13 28  1  0  0  0  0
 13 29  1  0  0  0  0
 15 30  1  0  0  0  0
 15 31  1  0  0  0  0
 16 32  1  0  0  0  0
 16 33  1  0  0  0  0
 22 34  1  0  0  0  0
 22 35  1  0  0  0  0
 22 36  1  0  0  0  0
M  END
> <BIOSOLVEIT.HYDE_ESTIMATED_AFFINITY_LOWER_BOUNDARY [nM]>
11115540.859531

> <BIOSOLVEIT.HYDE_ESTIMATED_AFFINITY_UPPER_BOUNDARY [nM]>
1104394704.673118

> <BIOSOLVEIT.HYDE_LIGAND_EFFICIENCY range: ++, +, 0, -, -->
--

> <BIOSOLVEIT.HYDE_LIGAND_LIPOPHILIC_EFFICIENCY range: ++, +, 0, -, -->
--

> <BIOSOLVEIT.INTER_CLASH range: red, yellow, green>
green

> <BIOSOLVEIT.INTRA_CLASH range: red, yellow, green>
green

> <BIOSOLVEIT.LOGP>
2.90082

> <BIOSOLVEIT.MOLECULAR WEIGHT>
329.733

> <BIOSOLVEIT.MOLECULE_CHECKSUM>
LTUuNDUzODU7MC4yNDc5MDI=

> <BIOSOLVEIT.TORSION_QUALITY range: red, yellow, green, not rotatable>
yellow

> <BIOSOLVEIT.TPSA>
59.23

> <BIOSOLVEIT.SEESAR_FAVORITE>
favorite

> <smc_score>
0.688

> <QED_score>
0.791

> <distance>
0.739

> <SimilarityPheSA_1>
0.663

> <Smiles>
Cc1noc(CCC(=O)N(C)Cc2cc(F)c(F)cc2Cl)n1

> <Similarity_SkelSpheres>
0.541

> <Cluster No>
385.0

> <QueryID>
JAN-GHE-5a013bed-2

> <SimilarityPheSA>
0.6629

> <Postera series>
3-aminopyridine-like

> <PDB_code>
Mpro-x10466

> <Approach>
DGM_exploratory_RL

> <ID>
20210628_846

> <SimilarityPheSA_2>
0.745

> <OPTIBRIUM.logD>
2.55676

> <OPTIBRIUM.BBB category>
-

> <OPTIBRIUM.logP>
2.55676

> <OPTIBRIUM.P-gp category>
no

> <OPTIBRIUM.logS>
2.06229

> <OPTIBRIUM.HIA category>
+

> <OPTIBRIUM.PPB90 category>
low

> <OPTIBRIUM.2D6 affinity category>
medium

> <OPTIBRIUM.hERG pIC50>
5.44009

> <OPTIBRIUM.2C9 pKi>
4.75038

> <OPTIBRIUM.BBB log([brain]:[blood])>
-0.460813

> <OPTIBRIUM.logS @ pH7.4>
2.06229

$$$$
Compound 1570_1_3
haSeeSAR  07122114523D 1   1.00000     0.00000     0
SeeSAR 11.0.2 hazemaj
 41 43  0  0  0  0            999 V2000
   23.8199   -7.1887    4.1340 Cl  0  0  0  0  0  0  0  0  0  0  0  0
   22.3915   -8.2431    4.0048 C   0  0  0  0  0  0  0  0  0  0  0  0
   22.4506   -9.5443    4.4901 C   0  0  0  0  0  0  0  0  0  0  0  0
   21.2295   -7.7540    3.4194 C   0  0  0  0  0  0  0  0  0  0  0  0
   23.9485  -10.1496    5.2371 Cl  0  0  0  0  0  0  0  0  0  0  0  0
   21.3448  -10.3826    4.3967 C   0  0  0  0  0  0  0  0  0  0  0  0
   20.1251   -8.5941    3.3279 C   0  0  0  0  0  0  0  0  0  0  0  0
   20.1812   -9.8962    3.8105 C   0  0  0  0  0  0  0  0  0  0  0  0
   19.0043   -8.1444    2.7722 F   0  0  0  0  0  0  0  0  0  0  0  0
   18.9637  -10.8005    3.7023 C   0  0  0  0  0  0  0  0  0  0  0  0
   18.0268  -10.5306    4.8684 C   0  0  0  0  0  0  0  0  0  0  0  0
   16.8861  -10.1181    4.6588 O   0  0  0  0  0  0  0  0  0  0  0  0
   18.4374  -10.7391    6.1087 N   0  0  0  0  0  0  0  0  0  0  0  0
   17.5180  -11.1097    7.0974 C   0  0  0  0  0  0  0  0  0  0  0  0
   17.6809  -10.9543    8.4910 C   0  0  0  0  0  0  0  0  0  0  0  0
   16.3001  -11.6860    6.8965 C   0  0  0  0  0  0  0  0  0  0  0  0
   16.5920  -11.4273    9.0491 N   0  0  0  0  0  0  0  0  0  0  0  0
   15.7566  -11.8656    8.1311 N   0  0  0  0  0  0  0  0  0  0  0  0
   14.4332  -12.4559    8.3815 C   0  0  0  0  0  0  0  0  0  0  0  0
   13.4838  -12.0674    7.2577 C   0  0  0  0  0  0  0  0  0  0  0  0
   13.2748  -12.7178    6.0856 C   0  0  0  0  0  0  0  0  0  0  0  0
   12.6288  -10.9520    7.2095 C   0  0  0  0  0  0  0  0  0  0  0  0
   12.3766  -12.0530    5.3988 O   0  0  0  0  0  0  0  0  0  0  0  0
   13.9672  -13.9985    5.6469 C   0  0  0  0  0  0  0  0  0  0  0  0
   12.0159  -11.0316    6.0569 N   0  0  0  0  0  0  0  0  0  0  0  0
   12.4702   -9.8886    8.2842 C   0  0  0  0  0  0  0  0  0  0  0  0
   21.1886   -6.8175    3.0711 H   0  0  0  0  0  0  0  0  0  0  0  0
   21.3857  -11.3190    4.7451 H   0  0  0  0  0  0  0  0  0  0  0  0
   19.2557  -11.7567    3.7237 H   0  0  0  0  0  0  0  0  0  0  0  0
   18.4873  -10.6166    2.8425 H   0  0  0  0  0  0  0  0  0  0  0  0
   19.4042  -10.6320    6.3400 H   0  0  0  0  0  0  0  0  0  0  0  0
   18.4713  -10.5608    8.9606 H   0  0  0  0  0  0  0  0  0  0  0  0
   15.8880  -11.9285    6.0182 H   0  0  0  0  0  0  0  0  0  0  0  0
   14.0760  -12.1166    9.2518 H   0  0  0  0  0  0  0  0  0  0  0  0
   14.5143  -13.4518    8.4199 H   0  0  0  0  0  0  0  0  0  0  0  0
   13.6323  -14.2657    4.7433 H   0  0  0  0  0  0  0  0  0  0  0  0
   14.9546  -13.8459    5.6046 H   0  0  0  0  0  0  0  0  0  0  0  0
   13.7701  -14.7259    6.3040 H   0  0  0  0  0  0  0  0  0  0  0  0
   11.7955   -9.2128    7.9875 H   0  0  0  0  0  0  0  0  0  0  0  0
   12.1620  -10.3167    9.1339 H   0  0  0  0  0  0  0  0  0  0  0  0
   13.3489   -9.4369    8.4384 H   0  0  0  0  0  0  0  0  0  0  0  0
  1  2  1  0  0  0  0
  2  3  2  0  0  0  0
  2  4  1  0  0  0  0
  3  5  1  0  0  0  0
  3  6  1  0  0  0  0
  4  7  2  0  0  0  0
  6  8  2  0  0  0  0
  7  9  1  0  0  0  0
  8 10  1  0  0  0  0
 10 11  1  0  0  0  0
 11 12  2  0  0  0  0
 11 13  1  0  0  0  0
 13 14  1  0  0  0  0
 14 15  1  0  0  0  0
 14 16  2  0  0  0  0
 15 17  2  0  0  0  0
 16 18  1  0  0  0  0
 18 19  1  0  0  0  0
 19 20  1  0  0  0  0
 20 21  2  0  0  0  0
 20 22  1  0  0  0  0
 21 23  1  0  0  0  0
 21 24  1  0  0  0  0
 22 25  2  0  0  0  0
 22 26  1  0  0  0  0
  7  8  1  0  0  0  0
 17 18  1  0  0  0  0
 23 25  1  0  0  0  0
  4 27  1  0  0  0  0
  6 28  1  0  0  0  0
 10 29  1  0  0  0  0
 10 30  1  0  0  0  0
 13 31  1  0  0  0  0
 15 32  1  0  0  0  0
 16 33  1  0  0  0  0
 19 34  1  0  0  0  0
 19 35  1  0  0  0  0
 24 36  1  0  0  0  0
 24 37  1  0  0  0  0
 24 38  1  0  0  0  0
 26 39  1  0  0  0  0
 26 40  1  0  0  0  0
 26 41  1  0  0  0  0
M  END
> <BIOSOLVEIT.HYDE_ESTIMATED_AFFINITY_LOWER_BOUNDARY [nM]>
5054238372.494213

> <BIOSOLVEIT.HYDE_ESTIMATED_AFFINITY_UPPER_BOUNDARY [nM]>
502168465329.535645

> <BIOSOLVEIT.HYDE_LIGAND_EFFICIENCY range: ++, +, 0, -, -->
--

> <BIOSOLVEIT.HYDE_LIGAND_LIPOPHILIC_EFFICIENCY range: ++, +, 0, -, -->
--

> <BIOSOLVEIT.INTER_CLASH range: red, yellow, green>
green

> <BIOSOLVEIT.INTRA_CLASH range: red, yellow, green>
yellow

> <BIOSOLVEIT.LOGP>
4.16334

> <BIOSOLVEIT.MOLECULAR WEIGHT>
397.236

> <BIOSOLVEIT.MOLECULE_CHECKSUM>
OS43MTY0Nzsw

> <BIOSOLVEIT.TORSION_QUALITY range: red, yellow, green, not rotatable>
yellow

> <BIOSOLVEIT.TPSA>
72.95

> <BIOSOLVEIT.SEESAR_FAVORITE>
favorite

> <smc_score>
0.75

> <QED_score>
0.657

> <distance>
0.704

> <SimilarityPheSA_1>
0.659

> <Smiles>
Cc1noc(C)c1Cn1cc(NC(=O)Cc2cc(Cl)c(Cl)cc2F)cn1

> <Similarity_SkelSpheres>
0.567

> <Cluster No>
382.0

> <QueryID>
MAT-POS-bb423b95-1

> <SimilarityPheSA>
0.6587

> <Postera series>
3-aminopyridine-like

> <PDB_code>
Mpro-x11542

> <Approach>
DGM_exploratory_RL

> <ID>
20210628_840

> <SimilarityPheSA_2>
0.655

> <OPTIBRIUM.logD>
4.42152

> <OPTIBRIUM.BBB category>
-

> <OPTIBRIUM.logP>
4.42152

> <OPTIBRIUM.P-gp category>
no

> <OPTIBRIUM.logS>
0.526662

> <OPTIBRIUM.HIA category>
+

> <OPTIBRIUM.PPB90 category>
high

> <OPTIBRIUM.2D6 affinity category>
medium

> <OPTIBRIUM.hERG pIC50>
5.0412

> <OPTIBRIUM.2C9 pKi>
5.53767

> <OPTIBRIUM.BBB log([brain]:[blood])>
-0.121007

> <OPTIBRIUM.logS @ pH7.4>
0.526662

$$$$
Compound 1592_1_1
haSeeSAR  07122114523D 1   1.00000     0.00000     0
SeeSAR 11.0.2 hazemaj
 47 49  0  0  0  0            999 V2000
   22.1216   -6.5948    3.5579 Cl  0  0  0  0  0  0  0  0  0  0  0  0
   21.1387   -8.0751    3.6530 C   0  0  0  0  0  0  0  0  0  0  0  0
   19.8419   -8.0817    3.1527 C   0  0  0  0  0  0  0  0  0  0  0  0
   21.6781   -9.2193    4.2315 C   0  0  0  0  0  0  0  0  0  0  0  0
   19.1721   -6.6057    2.4175 Cl  0  0  0  0  0  0  0  0  0  0  0  0
   19.0604   -9.2299    3.2209 C   0  0  0  0  0  0  0  0  0  0  0  0
   20.8979  -10.3686    4.2999 C   0  0  0  0  0  0  0  0  0  0  0  0
   19.6010  -10.3729    3.7994 C   0  0  0  0  0  0  0  0  0  0  0  0
   21.4020  -11.4686    4.8485 F   0  0  0  0  0  0  0  0  0  0  0  0
   18.7626  -11.6376    3.8841 C   0  0  0  0  0  0  0  0  0  0  0  0
   18.4781  -11.9435    5.2935 N   0  0  0  0  0  0  0  0  0  0  0  0
   17.5078  -11.2460    5.9635 C   0  0  0  0  0  0  0  0  0  0  0  0
   16.8900  -10.3854    5.3998 O   0  0  0  0  0  0  0  0  0  0  0  0
   17.2369  -11.5372    7.3054 N   0  0  0  0  0  0  0  0  0  0  0  0
   15.8480  -11.5235    7.7960 C   0  0  0  0  0  0  0  0  0  0  0  0
   18.3773  -11.8523    8.1796 C   0  0  0  0  0  0  0  0  0  0  0  0
   15.6178  -12.5108    8.8650 N   0  3  1  0  0  0  0  0  0  0  0  0
   17.9845  -12.8536    9.2557 C   0  0  0  0  0  0  0  0  0  0  0  0
   16.6612  -12.4766    9.9041 C   0  0  0  0  0  0  0  0  0  0  0  0
   14.2954  -12.2476    9.4501 C   0  0  0  0  0  0  0  0  0  0  0  0
   13.3549  -11.7402    8.3692 C   0  0  0  0  0  0  0  0  0  0  0  0
   12.7068  -10.4862    8.3494 C   0  0  0  0  0  0  0  0  0  0  0  0
   12.9880  -12.4134    7.2469 C   0  0  0  0  0  0  0  0  0  0  0  0
   11.9993  -10.4602    7.2461 N   0  0  0  0  0  0  0  0  0  0  0  0
   12.1433  -11.5843    6.5775 N   0  0  0  0  0  0  0  0  0  0  0  0
   11.4981  -11.9145    5.2999 C   0  0  0  0  0  0  0  0  0  0  0  0
   22.6109   -9.2156    4.5920 H   0  0  0  0  0  0  0  0  0  0  0  0
   18.1274   -9.2334    2.8609 H   0  0  0  0  0  0  0  0  0  0  0  0
   19.2643  -12.3984    3.4726 H   0  0  0  0  0  0  0  0  0  0  0  0
   17.9025  -11.5008    3.3925 H   0  0  0  0  0  0  0  0  0  0  0  0
   18.9928  -12.6606    5.7632 H   0  0  0  0  0  0  0  0  0  0  0  0
   15.2361  -11.7291    7.0322 H   0  0  0  0  0  0  0  0  0  0  0  0
   15.6425  -10.6117    8.1517 H   0  0  0  0  0  0  0  0  0  0  0  0
   18.6953  -11.0111    8.6170 H   0  0  0  0  0  0  0  0  0  0  0  0
   19.1149  -12.2400    7.6268 H   0  0  0  0  0  0  0  0  0  0  0  0
   18.6968  -12.8742    9.9572 H   0  0  0  0  0  0  0  0  0  0  0  0
   17.8980  -13.7597    8.8416 H   0  0  0  0  0  0  0  0  0  0  0  0
   16.4401  -13.1298   10.6282 H   0  0  0  0  0  0  0  0  0  0  0  0
   16.7234  -11.5571   10.2921 H   0  0  0  0  0  0  0  0  0  0  0  0
   14.3802  -11.5575   10.1689 H   0  0  0  0  0  0  0  0  0  0  0  0
   13.9295  -13.0924    9.8406 H   0  0  0  0  0  0  0  0  0  0  0  0
   12.7740   -9.7639    9.0377 H   0  0  0  0  0  0  0  0  0  0  0  0
   13.2790  -13.3294    6.9704 H   0  0  0  0  0  0  0  0  0  0  0  0
   10.9254  -11.1485    5.0080 H   0  0  0  0  0  0  0  0  0  0  0  0
   12.1987  -12.0894    4.6081 H   0  0  0  0  0  0  0  0  0  0  0  0
   10.9311  -12.7302    5.4138 H   0  0  0  0  0  0  0  0  0  0  0  0
   15.6075  -13.4235    8.4564 H   0  0  0  0  0  0  0  0  0  0  0  0
  1  2  1  0  0  0  0
  2  3  2  0  0  0  0
  2  4  1  0  0  0  0
  3  5  1  0  0  0  0
  3  6  1  0  0  0  0
  4  7  2  0  0  0  0
  6  8  2  0  0  0  0
  7  9  1  0  0  0  0
  8 10  1  0  0  0  0
 10 11  1  0  0  0  0
 11 12  1  0  0  0  0
 12 13  2  0  0  0  0
 12 14  1  0  0  0  0
 14 15  1  0  0  0  0
 14 16  1  0  0  0  0
 15 17  1  0  0  0  0
 16 18  1  0  0  0  0
 17 19  1  0  0  0  0
 17 20  1  0  0  0  0
 20 21  1  0  0  0  0
 21 22  1  0  0  0  0
 21 23  2  0  0  0  0
 22 24  2  0  0  0  0
 23 25  1  0  0  0  0
 25 26  1  0  0  0  0
  7  8  1  0  0  0  0
 18 19  1  0  0  0  0
 24 25  1  0  0  0  0
  4 27  1  0  0  0  0
  6 28  1  0  0  0  0
 10 29  1  0  0  0  0
 10 30  1  0  0  0  0
 11 31  1  0  0  0  0
 15 32  1  0  0  0  0
 15 33  1  0  0  0  0
 16 34  1  0  0  0  0
 16 35  1  0  0  0  0
 18 36  1  0  0  0  0
 18 37  1  0  0  0  0
 19 38  1  0  0  0  0
 19 39  1  0  0  0  0
 20 40  1  0  0  0  0
 20 41  1  0  0  0  0
 22 42  1  0  0  0  0
 23 43  1  0  0  0  0
 26 44  1  0  0  0  0
 26 45  1  0  0  0  0
 26 46  1  0  0  0  0
 17 47  1  0  0  0  0
M  CHG  1  17   1
M  END
> <BIOSOLVEIT.HYDE_ESTIMATED_AFFINITY_LOWER_BOUNDARY [nM]>
7215295.983842

> <BIOSOLVEIT.HYDE_ESTIMATED_AFFINITY_UPPER_BOUNDARY [nM]>
716882316.200700

> <BIOSOLVEIT.HYDE_LIGAND_EFFICIENCY range: ++, +, 0, -, -->
--

> <BIOSOLVEIT.HYDE_LIGAND_LIPOPHILIC_EFFICIENCY range: ++, +, 0, -, -->
--

> <BIOSOLVEIT.INTER_CLASH range: red, yellow, green>
red

> <BIOSOLVEIT.INTRA_CLASH range: red, yellow, green>
green

> <BIOSOLVEIT.LOGP>
1.8239

> <BIOSOLVEIT.MOLECULAR WEIGHT>
401.291

> <BIOSOLVEIT.MOLECULE_CHECKSUM>
LTYuNTI1MTswLjI1MDk2Ng==

> <BIOSOLVEIT.TORSION_QUALITY range: red, yellow, green, not rotatable>
green

> <BIOSOLVEIT.TPSA>
54.6

> <BIOSOLVEIT.SEESAR_FAVORITE>
favorite

> <smc_score>
0.813

> <QED_score>
0.802

> <distance>
0.75

> <SimilarityPheSA_1>
0.666

> <Smiles>
Cn1cc(CN2CCCN(C(=O)NCc3cc(Cl)c(Cl)cc3F)C2)cn1

> <Similarity_SkelSpheres>
0.582

> <Cluster No>
396.0

> <QueryID>
MAT-POS-f7918075-5

> <SimilarityPheSA>
0.6658

> <Postera series>
3-aminopyridine-like

> <PDB_code>
Mpro-x11499

> <Approach>
DGM_exploratory_RL

> <ID>
20210628_862

> <SimilarityPheSA_2>
0.732

> <OPTIBRIUM.logD>
1.52622

> <OPTIBRIUM.BBB category>
-

> <OPTIBRIUM.logP>
2.57217

> <OPTIBRIUM.P-gp category>
yes

> <OPTIBRIUM.logS>
2.16684

> <OPTIBRIUM.HIA category>
+

> <OPTIBRIUM.PPB90 category>
high

> <OPTIBRIUM.2D6 affinity category>
medium

> <OPTIBRIUM.hERG pIC50>
5.59166

> <OPTIBRIUM.2C9 pKi>
5.29698

> <OPTIBRIUM.BBB log([brain]:[blood])>
-0.430294

> <OPTIBRIUM.logS @ pH7.4>
2.59745

$$$$
Compound 1585_1_04
haSeeSAR  07122114523D 1   1.00000     0.00000     0
SeeSAR 11.0.2 hazemaj
 39 42  0  0  0  0            999 V2000
   19.0011   -6.3025    2.2911 Cl  0  0  0  0  0  0  0  0  0  0  0  0
   19.9413   -7.7687    2.6597 C   0  0  0  0  0  0  0  0  0  0  0  0
   21.2197   -7.6586    3.1961 C   0  0  0  0  0  0  0  0  0  0  0  0
   19.3855   -9.0178    2.4084 C   0  0  0  0  0  0  0  0  0  0  0  0
   21.9089   -6.0475    3.5077 Cl  0  0  0  0  0  0  0  0  0  0  0  0
   21.9625   -8.7980    3.4895 C   0  0  0  0  0  0  0  0  0  0  0  0
   20.1324  -10.1528    2.7030 C   0  0  0  0  0  0  0  0  0  0  0  0
   21.4116  -10.0502    3.2389 C   0  0  0  0  0  0  0  0  0  0  0  0
   19.5403  -11.5265    2.4351 C   0  0  0  0  0  0  0  0  0  0  0  0
   19.0676  -12.1121    3.7001 N   0  0  0  0  0  0  0  0  0  0  0  0
   17.8457  -11.7321    4.2748 C   0  0  0  0  0  0  0  0  0  0  0  0
   19.9045  -13.1085    4.3869 C   0  0  0  0  0  0  0  0  0  0  0  0
   17.1718  -10.6043    4.3735 N   0  0  0  0  0  0  0  0  0  0  0  0
   17.1338  -12.6983    4.8904 N   0  0  0  0  0  0  0  0  0  0  0  0
   19.1090  -14.0262    5.3063 C   0  0  0  0  0  0  0  0  0  0  0  0
   16.0454  -10.8066    5.0160 N   0  0  0  0  0  0  0  0  0  0  0  0
   16.0048  -12.0780    5.3376 C   0  0  0  0  0  0  0  0  0  0  0  0
   17.6272  -14.0836    4.9748 C   0  0  0  0  0  0  0  0  0  0  0  0
   14.8715  -12.7504    6.0958 C   0  0  0  0  0  0  0  0  0  0  0  0
   13.9369  -11.7293    6.5860 N   0  0  0  0  0  0  0  0  0  0  0  0
   13.6545  -11.4912    7.8523 N   0  0  0  0  0  0  0  0  0  0  0  0
   13.2193  -10.8771    5.8032 C   0  0  0  0  0  0  0  0  0  0  0  0
   12.7790  -10.5075    7.9004 C   0  0  0  0  0  0  0  0  0  0  0  0
   12.5039  -10.1310    6.6157 N   0  0  0  0  0  0  0  0  0  0  0  0
   18.4661   -9.0983    2.0231 H   0  0  0  0  0  0  0  0  0  0  0  0
   22.8815   -8.7174    3.8758 H   0  0  0  0  0  0  0  0  0  0  0  0
   21.9354  -10.8769    3.4441 H   0  0  0  0  0  0  0  0  0  0  0  0
   20.2396  -12.1185    2.0345 H   0  0  0  0  0  0  0  0  0  0  0  0
   18.7725  -11.4405    1.8001 H   0  0  0  0  0  0  0  0  0  0  0  0
   20.5893  -12.6263    4.9335 H   0  0  0  0  0  0  0  0  0  0  0  0
   20.3630  -13.6688    3.6971 H   0  0  0  0  0  0  0  0  0  0  0  0
   19.2104  -13.6980    6.2455 H   0  0  0  0  0  0  0  0  0  0  0  0
   19.4852  -14.9499    5.2337 H   0  0  0  0  0  0  0  0  0  0  0  0
   17.4917  -14.5474    4.0994 H   0  0  0  0  0  0  0  0  0  0  0  0
   17.1364  -14.5769    5.6930 H   0  0  0  0  0  0  0  0  0  0  0  0
   15.2451  -13.2599    6.8709 H   0  0  0  0  0  0  0  0  0  0  0  0
   14.3888  -13.3786    5.4856 H   0  0  0  0  0  0  0  0  0  0  0  0
   13.2337  -10.8282    4.8046 H   0  0  0  0  0  0  0  0  0  0  0  0
   12.3862  -10.1079    8.7287 H   0  0  0  0  0  0  0  0  0  0  0  0
  1  2  1  0  0  0  0
  2  3  2  0  0  0  0
  2  4  1  0  0  0  0
  3  5  1  0  0  0  0
  3  6  1  0  0  0  0
  4  7  2  0  0  0  0
  6  8  2  0  0  0  0
  7  9  1  0  0  0  0
  9 10  1  0  0  0  0
 10 11  1  0  0  0  0
 10 12  1  0  0  0  0
 11 13  2  0  0  0  0
 11 14  1  0  0  0  0
 12 15  1  0  0  0  0
 13 16  1  0  0  0  0
 14 17  1  0  0  0  0
 14 18  1  0  0  0  0
 17 19  1  0  0  0  0
 19 20  1  0  0  0  0
 20 21  1  0  0  0  0
 20 22  1  0  0  0  0
 21 23  2  0  0  0  0
 22 24  2  0  0  0  0
  7  8  1  0  0  0  0
 15 18  1  0  0  0  0
 16 17  2  0  0  0  0
 23 24  1  0  0  0  0
  4 25  1  0  0  0  0
  6 26  1  0  0  0  0
  8 27  1  0  0  0  0
  9 28  1  0  0  0  0
  9 29  1  0  0  0  0
 12 30  1  0  0  0  0
 12 31  1  0  0  0  0
 15 32  1  0  0  0  0
 15 33  1  0  0  0  0
 18 34  1  0  0  0  0
 18 35  1  0  0  0  0
 19 36  1  0  0  0  0
 19 37  1  0  0  0  0
 22 38  1  0  0  0  0
 23 39  1  0  0  0  0
M  END
> <BIOSOLVEIT.HYDE_ESTIMATED_AFFINITY_LOWER_BOUNDARY [nM]>
13980153.573178

> <BIOSOLVEIT.HYDE_ESTIMATED_AFFINITY_UPPER_BOUNDARY [nM]>
1389010914.704707

> <BIOSOLVEIT.HYDE_LIGAND_EFFICIENCY range: ++, +, 0, -, -->
--

> <BIOSOLVEIT.HYDE_LIGAND_LIPOPHILIC_EFFICIENCY range: ++, +, 0, -, -->
--

> <BIOSOLVEIT.INTER_CLASH range: red, yellow, green>
green

> <BIOSOLVEIT.INTRA_CLASH range: red, yellow, green>
green

> <BIOSOLVEIT.LOGP>
2.635

> <BIOSOLVEIT.MOLECULAR WEIGHT>
364.239

> <BIOSOLVEIT.MOLECULE_CHECKSUM>
LTQuODg1NDM7MC4yMDM1Ng==

> <BIOSOLVEIT.TORSION_QUALITY range: red, yellow, green, not rotatable>
green

> <BIOSOLVEIT.TPSA>
64.66

> <BIOSOLVEIT.SEESAR_FAVORITE>
favorite

> <smc_score>
0.563

> <QED_score>
0.712

> <distance>
0.765

> <SimilarityPheSA_1>
0.636

> <Smiles>
Clc1ccc(CN2CCCn3c(Cn4cncn4)nnc32)cc1Cl

> <Similarity_SkelSpheres>
0.605

> <Cluster No>
392.0

> <QueryID>
JAG-UCB-a3ef7265-20

> <SimilarityPheSA>
0.6359

> <Postera series>
3-aminopyridine-like

> <PDB_code>
Mpro-x10324

> <Approach>
DGM_exploratory_RL

> <ID>
20210628_855

> <SimilarityPheSA_2>
0.643

> <OPTIBRIUM.logD>
1.9152

> <OPTIBRIUM.BBB category>
-

> <OPTIBRIUM.logP>
2.37857

> <OPTIBRIUM.P-gp category>
no

> <OPTIBRIUM.logS>
2.45321

> <OPTIBRIUM.HIA category>
+

> <OPTIBRIUM.PPB90 category>
low

> <OPTIBRIUM.2D6 affinity category>
medium

> <OPTIBRIUM.hERG pIC50>
5.60912

> <OPTIBRIUM.2C9 pKi>
5.15271

> <OPTIBRIUM.BBB log([brain]:[blood])>
-0.121695

> <OPTIBRIUM.logS @ pH7.4>
2.45221

$$$$
Compound 1557_1_6
haSeeSAR  07122114523D 1   1.00000     0.00000     0
SeeSAR 11.0.2 hazemaj
 46 48  0  0  0  0            999 V2000
   18.9909   -6.8765    2.9203 Cl  0  0  0  0  0  0  0  0  0  0  0  0
   19.9579   -8.2606    3.4830 C   0  0  0  0  0  0  0  0  0  0  0  0
   21.3247   -8.1074    3.6909 C   0  0  0  0  0  0  0  0  0  0  0  0
   19.3438   -9.4870    3.7125 C   0  0  0  0  0  0  0  0  0  0  0  0
   22.0989   -6.5321    3.3945 Cl  0  0  0  0  0  0  0  0  0  0  0  0
   22.0990   -9.1766    4.1296 C   0  0  0  0  0  0  0  0  0  0  0  0
   20.1214  -10.5531    4.1514 C   0  0  0  0  0  0  0  0  0  0  0  0
   21.4886  -10.4055    4.3601 C   0  0  0  0  0  0  0  0  0  0  0  0
   19.4544  -11.8958    4.4032 C   0  0  0  0  0  0  0  0  0  0  0  0
   19.8836  -12.4192    5.7083 N   0  3  2  0  0  0  0  0  0  0  0  0
   19.0500  -13.5379    6.1705 C   0  0  0  0  0  0  0  0  0  0  0  0
   19.9389  -11.3843    6.7491 C   0  0  0  0  0  0  0  0  0  0  0  0
   18.0201  -13.0619    7.1843 C   0  0  0  0  0  0  0  0  0  0  0  0
   18.5901  -10.7100    6.9210 C   0  0  0  0  0  0  0  0  0  0  0  0
   17.5738  -11.7466    6.7118 N   0  0  0  0  0  0  0  0  0  0  0  0
   16.3311  -11.5158    6.1149 C   0  0  0  0  0  0  0  0  0  0  0  0
   16.1806  -10.5569    5.3576 O   0  0  0  0  0  0  0  0  0  0  0  0
   15.1655  -12.4486    6.4010 C   0  0  0  0  0  0  0  0  0  0  0  0
   14.0163  -11.6653    6.8764 N   0  0  0  0  0  0  0  0  0  0  0  0
   13.0989  -11.0212    6.0990 C   0  0  0  0  0  0  0  0  0  0  0  0
   13.6777  -11.4486    8.1786 C   0  0  0  0  0  0  0  0  0  0  0  0
   12.2168  -10.4229    6.8684 N   0  3  0  0  0  0  0  0  0  0  0  0
   13.1164  -11.0035    4.5781 C   0  0  0  0  0  0  0  0  0  0  0  0
   12.5548  -10.6750    8.1671 C   0  0  0  0  0  0  0  0  0  0  0  0
   18.3613   -9.6001    3.5646 H   0  0  0  0  0  0  0  0  0  0  0  0
   23.0815   -9.0634    4.2774 H   0  0  0  0  0  0  0  0  0  0  0  0
   22.0330  -11.1827    4.6758 H   0  0  0  0  0  0  0  0  0  0  0  0
   19.7171  -12.5386    3.6835 H   0  0  0  0  0  0  0  0  0  0  0  0
   18.4611  -11.7803    4.4007 H   0  0  0  0  0  0  0  0  0  0  0  0
   19.6347  -14.2282    6.5966 H   0  0  0  0  0  0  0  0  0  0  0  0
   18.5768  -13.9398    5.3865 H   0  0  0  0  0  0  0  0  0  0  0  0
   20.6172  -10.6966    6.4904 H   0  0  0  0  0  0  0  0  0  0  0  0
   20.2059  -11.8063    7.6155 H   0  0  0  0  0  0  0  0  0  0  0  0
   18.4342  -12.9842    8.0912 H   0  0  0  0  0  0  0  0  0  0  0  0
   17.2495  -13.6980    7.2231 H   0  0  0  0  0  0  0  0  0  0  0  0
   18.4813   -9.9793    6.2473 H   0  0  0  0  0  0  0  0  0  0  0  0
   18.5097  -10.3290    7.8421 H   0  0  0  0  0  0  0  0  0  0  0  0
   15.4319  -13.1093    7.1027 H   0  0  0  0  0  0  0  0  0  0  0  0
   14.9143  -12.9344    5.5637 H   0  0  0  0  0  0  0  0  0  0  0  0
   14.1590  -11.7906    8.9856 H   0  0  0  0  0  0  0  0  0  0  0  0
   12.3426  -10.4666    4.2420 H   0  0  0  0  0  0  0  0  0  0  0  0
   13.9706  -10.5928    4.2593 H   0  0  0  0  0  0  0  0  0  0  0  0
   13.0475  -11.9396    4.2330 H   0  0  0  0  0  0  0  0  0  0  0  0
   12.0622  -10.3476    8.9735 H   0  0  0  0  0  0  0  0  0  0  0  0
   20.8125  -12.7716    5.5936 H   0  0  0  0  0  0  0  0  0  0  0  0
   11.4368   -9.8796    6.5578 H   0  0  0  0  0  0  0  0  0  0  0  0
  1  2  1  0  0  0  0
  2  3  2  0  0  0  0
  2  4  1  0  0  0  0
  3  5  1  0  0  0  0
  3  6  1  0  0  0  0
  4  7  2  0  0  0  0
  6  8  2  0  0  0  0
  7  9  1  0  0  0  0
  9 10  1  0  0  0  0
 10 11  1  0  0  0  0
 10 12  1  0  0  0  0
 11 13  1  0  0  0  0
 12 14  1  0  0  0  0
 13 15  1  0  0  0  0
 15 16  1  0  0  0  0
 16 17  2  0  0  0  0
 16 18  1  0  0  0  0
 18 19  1  0  0  0  0
 19 20  1  0  0  0  0
 19 21  1  0  0  0  0
 20 22  2  0  0  0  0
 20 23  1  0  0  0  0
 21 24  2  0  0  0  0
  7  8  1  0  0  0  0
 14 15  1  0  0  0  0
 22 24  1  0  0  0  0
  4 25  1  0  0  0  0
  6 26  1  0  0  0  0
  8 27  1  0  0  0  0
  9 28  1  0  0  0  0
  9 29  1  0  0  0  0
 11 30  1  0  0  0  0
 11 31  1  0  0  0  0
 12 32  1  0  0  0  0
 12 33  1  0  0  0  0
 13 34  1  0  0  0  0
 13 35  1  0  0  0  0
 14 36  1  0  0  0  0
 14 37  1  0  0  0  0
 18 38  1  0  0  0  0
 18 39  1  0  0  0  0
 21 40  1  0  0  0  0
 23 41  1  0  0  0  0
 23 42  1  0  0  0  0
 23 43  1  0  0  0  0
 24 44  1  0  0  0  0
 10 45  1  0  0  0  0
 22 46  1  0  0  0  0
M  CHG  2  10   1  22   1
M  END
> <BIOSOLVEIT.HYDE_ESTIMATED_AFFINITY_LOWER_BOUNDARY [nM]>
12409980.420905

> <BIOSOLVEIT.HYDE_ESTIMATED_AFFINITY_UPPER_BOUNDARY [nM]>
1233004928.427993

> <BIOSOLVEIT.HYDE_LIGAND_EFFICIENCY range: ++, +, 0, -, -->
--

> <BIOSOLVEIT.HYDE_LIGAND_LIPOPHILIC_EFFICIENCY range: ++, +, 0, -, -->
--

> <BIOSOLVEIT.INTER_CLASH range: red, yellow, green>
green

> <BIOSOLVEIT.INTRA_CLASH range: red, yellow, green>
yellow

> <BIOSOLVEIT.LOGP>
0.84472

> <BIOSOLVEIT.MOLECULAR WEIGHT>
369.294

> <BIOSOLVEIT.MOLECULE_CHECKSUM>
LTUuMTgwNzc7MC4yMTU4NjY=

> <BIOSOLVEIT.TORSION_QUALITY range: red, yellow, green, not rotatable>
yellow

> <BIOSOLVEIT.TPSA>
43.82

> <BIOSOLVEIT.SEESAR_FAVORITE>
favorite

> <smc_score>
0.875

> <QED_score>
0.835

> <distance>
0.69

> <SimilarityPheSA_1>
0.666

> <Smiles>
Cc1nccn1CC(=O)N1CCN(Cc2ccc(Cl)c(Cl)c2)CC1

> <Similarity_SkelSpheres>
0.641

> <Cluster No>
374.0

> <QueryID>
MAT-POS-f7918075-5

> <SimilarityPheSA>
0.6664

> <Postera series>
3-aminopyridine-like

> <PDB_code>
Mpro-x11499

> <Approach>
DGM_exploratory_RL

> <ID>
20210628_827

> <SimilarityPheSA_2>
0.729

> <OPTIBRIUM.logD>
1.08172

> <OPTIBRIUM.BBB category>
-

> <OPTIBRIUM.logP>
2.14109

> <OPTIBRIUM.P-gp category>
yes

> <OPTIBRIUM.logS>
3.73915

> <OPTIBRIUM.HIA category>
+

> <OPTIBRIUM.PPB90 category>
low

> <OPTIBRIUM.2D6 affinity category>
medium

> <OPTIBRIUM.hERG pIC50>
5.23363

> <OPTIBRIUM.2C9 pKi>
4.92998

> <OPTIBRIUM.BBB log([brain]:[blood])>
-0.496635

> <OPTIBRIUM.logS @ pH7.4>
2.51574

$$$$
Compound 1657_1_01
haSeeSAR  07122114523D 1   1.00000     0.00000     0
SeeSAR 11.0.2 hazemaj
 49 52  0  0  0  0            999 V2000
   21.0125   -5.7308    3.4038 Cl  0  0  0  0  0  0  0  0  0  0  0  0
   21.1550   -7.5044    3.4432 C   0  0  0  0  0  0  0  0  0  0  0  0
   22.3807   -8.0910    3.7400 C   0  0  0  0  0  0  0  0  0  0  0  0
   20.0419   -8.2948    3.1778 C   0  0  0  0  0  0  0  0  0  0  0  0
   23.7979   -7.0684    4.0788 Cl  0  0  0  0  0  0  0  0  0  0  0  0
   22.5141   -9.4753    3.7751 C   0  0  0  0  0  0  0  0  0  0  0  0
   20.1794   -9.6781    3.2143 C   0  0  0  0  0  0  0  0  0  0  0  0
   21.4030  -10.2699    3.5099 C   0  0  0  0  0  0  0  0  0  0  0  0
   18.9655  -10.5462    2.9245 C   0  0  0  0  0  0  0  0  0  0  0  0
   17.9648  -10.4137    4.0611 C   0  0  0  0  0  0  0  0  0  0  0  0
   16.9644   -9.7101    3.9214 O   0  0  0  0  0  0  0  0  0  0  0  0
   18.1804  -11.0899    5.2634 N   0  0  0  0  0  0  0  0  0  0  0  0
   17.0798  -11.6680    6.0265 C   0  0  0  0  0  0  0  0  0  0  0  0
   19.5028  -11.2846    5.8669 C   0  0  0  0  0  0  0  0  0  0  0  0
   17.3885  -11.4552    7.5025 C   0  0  0  0  0  0  0  0  0  0  0  0
   19.5596  -10.3599    7.0649 C   0  0  0  0  0  0  0  0  0  0  0  0
   18.4942  -10.8619    8.0216 C   0  0  0  0  0  0  0  0  0  0  0  0
   16.6443  -11.8027    8.6340 C   0  0  0  0  0  0  0  0  0  0  0  0
   18.4012  -10.8386    9.3366 O   0  0  0  0  0  0  0  0  0  0  0  0
   17.3173  -11.3915    9.6774 N   0  0  0  0  0  0  0  0  0  0  0  0
   15.3016  -12.5214    8.6488 C   0  0  0  0  0  0  0  0  0  0  0  0
   14.3153  -11.7344    7.8896 N   0  3  0  0  0  0  0  0  0  0  0  0
   13.7633  -12.5986    6.8364 C   0  0  0  0  0  0  0  0  0  0  0  0
   13.2417  -11.2546    8.7723 C   0  0  0  0  0  0  0  0  0  0  0  0
   12.4818  -11.9931    6.2847 C   0  0  0  0  0  0  0  0  0  0  0  0
   12.3229  -10.3460    7.9677 C   0  0  0  0  0  0  0  0  0  0  0  0
   12.4103  -10.6026    6.5710 O   0  0  0  0  0  0  0  0  0  0  0  0
   19.1592   -7.8761    2.9648 H   0  0  0  0  0  0  0  0  0  0  0  0
   23.3969   -9.8939    3.9881 H   0  0  0  0  0  0  0  0  0  0  0  0
   21.4842  -11.2663    3.5318 H   0  0  0  0  0  0  0  0  0  0  0  0
   19.2507  -11.5010    2.8412 H   0  0  0  0  0  0  0  0  0  0  0  0
   18.5399  -10.2496    2.0696 H   0  0  0  0  0  0  0  0  0  0  0  0
   17.0043  -12.6457    5.8304 H   0  0  0  0  0  0  0  0  0  0  0  0
   16.2220  -11.2129    5.7876 H   0  0  0  0  0  0  0  0  0  0  0  0
   20.2210  -11.0487    5.2123 H   0  0  0  0  0  0  0  0  0  0  0  0
   19.6152  -12.2351    6.1568 H   0  0  0  0  0  0  0  0  0  0  0  0
   19.3646   -9.4188    6.7886 H   0  0  0  0  0  0  0  0  0  0  0  0
   20.4616  -10.4010    7.4947 H   0  0  0  0  0  0  0  0  0  0  0  0
   14.9895  -12.6253    9.5932 H   0  0  0  0  0  0  0  0  0  0  0  0
   15.4020  -13.4238    8.2297 H   0  0  0  0  0  0  0  0  0  0  0  0
   13.5651  -13.5012    7.2187 H   0  0  0  0  0  0  0  0  0  0  0  0
   14.4315  -12.6888    6.0980 H   0  0  0  0  0  0  0  0  0  0  0  0
   13.6363  -10.7438    9.5362 H   0  0  0  0  0  0  0  0  0  0  0  0
   12.7218  -12.0327    9.1248 H   0  0  0  0  0  0  0  0  0  0  0  0
   11.6974  -12.4532    6.7006 H   0  0  0  0  0  0  0  0  0  0  0  0
   12.4584  -12.1244    5.2937 H   0  0  0  0  0  0  0  0  0  0  0  0
   12.5796   -9.3946    8.1380 H   0  0  0  0  0  0  0  0  0  0  0  0
   11.3799  -10.4952    8.2650 H   0  0  0  0  0  0  0  0  0  0  0  0
   14.7717  -10.9507    7.4683 H   0  0  0  0  0  0  0  0  0  0  0  0
  1  2  1  0  0  0  0
  2  3  2  0  0  0  0
  2  4  1  0  0  0  0
  3  5  1  0  0  0  0
  3  6  1  0  0  0  0
  4  7  2  0  0  0  0
  6  8  2  0  0  0  0
  7  9  1  0  0  0  0
  9 10  1  0  0  0  0
 10 11  2  0  0  0  0
 10 12  1  0  0  0  0
 12 13  1  0  0  0  0
 12 14  1  0  0  0  0
 13 15  1  0  0  0  0
 14 16  1  0  0  0  0
 15 17  2  0  0  0  0
 15 18  1  0  0  0  0
 17 19  1  0  0  0  0
 18 20  2  0  0  0  0
 18 21  1  0  0  0  0
 21 22  1  0  0  0  0
 22 23  1  0  0  0  0
 22 24  1  0  0  0  0
 23 25  1  0  0  0  0
 24 26  1  0  0  0  0
 25 27  1  0  0  0  0
  7  8  1  0  0  0  0
 16 17  1  0  0  0  0
 19 20  1  0  0  0  0
 26 27  1  0  0  0  0
  4 28  1  0  0  0  0
  6 29  1  0  0  0  0
  8 30  1  0  0  0  0
  9 31  1  0  0  0  0
  9 32  1  0  0  0  0
 13 33  1  0  0  0  0
 13 34  1  0  0  0  0
 14 35  1  0  0  0  0
 14 36  1  0  0  0  0
 16 37  1  0  0  0  0
 16 38  1  0  0  0  0
 21 39  1  0  0  0  0
 21 40  1  0  0  0  0
 23 41  1  0  0  0  0
 23 42  1  0  0  0  0
 24 43  1  0  0  0  0
 24 44  1  0  0  0  0
 25 45  1  0  0  0  0
 25 46  1  0  0  0  0
 26 47  1  0  0  0  0
 26 48  1  0  0  0  0
 22 49  1  0  0  0  0
M  CHG  1  22   1
M  END
> <BIOSOLVEIT.HYDE_ESTIMATED_AFFINITY_LOWER_BOUNDARY [nM]>
15733503402.301369

> <BIOSOLVEIT.HYDE_ESTIMATED_AFFINITY_UPPER_BOUNDARY [nM]>
1563216586852.770264

> <BIOSOLVEIT.HYDE_LIGAND_EFFICIENCY range: ++, +, 0, -, -->
--

> <BIOSOLVEIT.HYDE_LIGAND_LIPOPHILIC_EFFICIENCY range: ++, +, 0, -, -->
--

> <BIOSOLVEIT.INTER_CLASH range: red, yellow, green>
green

> <BIOSOLVEIT.INTRA_CLASH range: red, yellow, green>
green

> <BIOSOLVEIT.LOGP>
1.5239

> <BIOSOLVEIT.MOLECULAR WEIGHT>
411.307

> <BIOSOLVEIT.MOLECULE_CHECKSUM>
MTIuNTMxNTsw

> <BIOSOLVEIT.TORSION_QUALITY range: red, yellow, green, not rotatable>
green

> <BIOSOLVEIT.TPSA>
60.01

> <BIOSOLVEIT.SEESAR_FAVORITE>
favorite

> <smc_score>
0.563

> <QED_score>
0.776

> <distance>
0.721

> <SimilarityPheSA_1>
0.647

> <Smiles>
O=C(Cc1ccc(Cl)c(Cl)c1)N1CCc2onc(CN3CCOCC3)c2C1

> <Similarity_SkelSpheres>
0.627

> <Cluster No>
437.0

> <QueryID>
MAT-POS-f7918075-5

> <SimilarityPheSA>
0.6467

> <Postera series>
3-aminopyridine-like

> <PDB_code>
Mpro-x11499

> <Approach>
DGM_exploratory_RL

> <ID>
20210628_927

> <SimilarityPheSA_2>
0.662

> <OPTIBRIUM.logD>
2.28372

> <OPTIBRIUM.BBB category>
-

> <OPTIBRIUM.logP>
2.62891

> <OPTIBRIUM.P-gp category>
yes

> <OPTIBRIUM.logS>
3.10981

> <OPTIBRIUM.HIA category>
+

> <OPTIBRIUM.PPB90 category>
high

> <OPTIBRIUM.2D6 affinity category>
medium

> <OPTIBRIUM.hERG pIC50>
5.63083

> <OPTIBRIUM.2C9 pKi>
4.94479

> <OPTIBRIUM.BBB log([brain]:[blood])>
-0.328074

> <OPTIBRIUM.logS @ pH7.4>
2.16106

$$$$
Compound 1677_1_02
haSeeSAR  07122114523D 1   1.00000     0.00000     0
SeeSAR 11.0.2 hazemaj
 44 46  0  0  0  0            999 V2000
   22.1582   -7.6604    3.1764 Cl  0  0  0  0  0  0  0  0  0  0  0  0
   21.1095   -9.0007    3.6961 C   0  0  0  0  0  0  0  0  0  0  0  0
   19.7518   -8.9762    3.3995 C   0  0  0  0  0  0  0  0  0  0  0  0
   21.6592  -10.0671    4.3999 C   0  0  0  0  0  0  0  0  0  0  0  0
   19.0700   -7.6008    2.4985 Cl  0  0  0  0  0  0  0  0  0  0  0  0
   18.9186  -10.0150    3.8000 C   0  0  0  0  0  0  0  0  0  0  0  0
   20.8273  -11.1071    4.8005 C   0  0  0  0  0  0  0  0  0  0  0  0
   19.4695  -11.0804    4.5033 C   0  0  0  0  0  0  0  0  0  0  0  0
   21.3403  -12.1325    5.4719 F   0  0  0  0  0  0  0  0  0  0  0  0
   18.5753  -12.2250    4.9504 C   0  0  0  0  0  0  0  0  0  0  0  0
   17.3326  -12.2114    4.1654 N   0  0  0  0  0  0  0  0  0  0  0  0
   16.3696  -11.3554    4.4659 C   0  0  0  0  0  0  0  0  0  0  0  0
   16.5143  -10.5704    5.4030 O   0  0  0  0  0  0  0  0  0  0  0  0
   15.0846  -11.3413    3.6542 C   0  0  0  0  0  0  0  0  0  0  0  0
   13.9294  -11.3744    4.5642 N   0  0  0  0  0  0  0  0  0  0  0  0
   12.9479  -10.5061    4.6133 N   0  0  0  0  0  0  0  0  0  0  0  0
   13.6778  -12.3042    5.5164 C   0  0  0  0  0  0  0  0  0  0  0  0
   12.1232  -10.8420    5.5135 N   0  0  0  0  0  0  0  0  0  0  0  0
   12.5539  -11.9428    6.0883 N   0  0  0  0  0  0  0  0  0  0  0  0
   14.5279  -13.5187    5.8549 C   0  0  0  0  0  0  0  0  0  0  0  0
   15.2211  -13.2915    7.1340 N   0  3  0  0  0  0  0  0  0  0  0  0
   16.6504  -13.6295    7.0436 C   0  0  0  0  0  0  0  0  0  0  0  0
   15.1025  -11.8903    7.5662 C   0  0  0  0  0  0  0  0  0  0  0  0
   17.3673  -13.3661    8.3593 C   0  0  0  0  0  0  0  0  0  0  0  0
   15.8062  -11.6605    8.8956 C   0  0  0  0  0  0  0  0  0  0  0  0
   16.4929  -12.8244    9.3414 O   0  0  0  0  0  0  0  0  0  0  0  0
   22.6358  -10.0857    4.6141 H   0  0  0  0  0  0  0  0  0  0  0  0
   17.9418   -9.9962    3.5862 H   0  0  0  0  0  0  0  0  0  0  0  0
   18.3579  -12.1187    5.9206 H   0  0  0  0  0  0  0  0  0  0  0  0
   19.0498  -13.0937    4.8083 H   0  0  0  0  0  0  0  0  0  0  0  0
   17.2151  -12.8492    3.4041 H   0  0  0  0  0  0  0  0  0  0  0  0
   15.0600  -12.1417    3.0551 H   0  0  0  0  0  0  0  0  0  0  0  0
   15.0491  -10.5094    3.1005 H   0  0  0  0  0  0  0  0  0  0  0  0
   15.2026  -13.6654    5.1315 H   0  0  0  0  0  0  0  0  0  0  0  0
   13.9415  -14.3250    5.9321 H   0  0  0  0  0  0  0  0  0  0  0  0
   17.0714  -13.0738    6.3267 H   0  0  0  0  0  0  0  0  0  0  0  0
   16.7417  -14.5979    6.8115 H   0  0  0  0  0  0  0  0  0  0  0  0
   14.1343  -11.6610    7.6661 H   0  0  0  0  0  0  0  0  0  0  0  0
   15.5150  -11.2996    6.8728 H   0  0  0  0  0  0  0  0  0  0  0  0
   18.1122  -12.7187    8.1975 H   0  0  0  0  0  0  0  0  0  0  0  0
   17.7428  -14.2276    8.7009 H   0  0  0  0  0  0  0  0  0  0  0  0
   15.1253  -11.4044    9.5817 H   0  0  0  0  0  0  0  0  0  0  0  0
   16.4664  -10.9173    8.7876 H   0  0  0  0  0  0  0  0  0  0  0  0
   14.8011  -13.8743    7.8299 H   0  0  0  0  0  0  0  0  0  0  0  0
  1  2  1  0  0  0  0
  2  3  2  0  0  0  0
  2  4  1  0  0  0  0
  3  5  1  0  0  0  0
  3  6  1  0  0  0  0
  4  7  2  0  0  0  0
  6  8  2  0  0  0  0
  7  9  1  0  0  0  0
  8 10  1  0  0  0  0
 10 11  1  0  0  0  0
 11 12  1  0  0  0  0
 12 13  2  0  0  0  0
 12 14  1  0  0  0  0
 14 15  1  0  0  0  0
 15 16  1  0  0  0  0
 15 17  1  0  0  0  0
 16 18  2  0  0  0  0
 17 19  2  0  0  0  0
 17 20  1  0  0  0  0
 20 21  1  0  0  0  0
 21 22  1  0  0  0  0
 21 23  1  0  0  0  0
 22 24  1  0  0  0  0
 23 25  1  0  0  0  0
 24 26  1  0  0  0  0
  7  8  1  0  0  0  0
 18 19  1  0  0  0  0
 25 26  1  0  0  0  0
  4 27  1  0  0  0  0
  6 28  1  0  0  0  0
 10 29  1  0  0  0  0
 10 30  1  0  0  0  0
 11 31  1  0  0  0  0
 14 32  1  0  0  0  0
 14 33  1  0  0  0  0
 20 34  1  0  0  0  0
 20 35  1  0  0  0  0
 22 36  1  0  0  0  0
 22 37  1  0  0  0  0
 23 38  1  0  0  0  0
 23 39  1  0  0  0  0
 24 40  1  0  0  0  0
 24 41  1  0  0  0  0
 25 42  1  0  0  0  0
 25 43  1  0  0  0  0
 21 44  1  0  0  0  0
M  CHG  1  21   1
M  END
> <BIOSOLVEIT.HYDE_ESTIMATED_AFFINITY_LOWER_BOUNDARY [nM]>
22453555939.022881

> <BIOSOLVEIT.HYDE_ESTIMATED_AFFINITY_UPPER_BOUNDARY [nM]>
2230893538471.093262

> <BIOSOLVEIT.HYDE_LIGAND_EFFICIENCY range: ++, +, 0, -, -->
--

> <BIOSOLVEIT.HYDE_LIGAND_LIPOPHILIC_EFFICIENCY range: ++, +, 0, -, -->
--

> <BIOSOLVEIT.INTER_CLASH range: red, yellow, green>
green

> <BIOSOLVEIT.INTRA_CLASH range: red, yellow, green>
yellow

> <BIOSOLVEIT.LOGP>
-0.1495

> <BIOSOLVEIT.MOLECULAR WEIGHT>
404.251

> <BIOSOLVEIT.MOLECULE_CHECKSUM>
MTMuNDEzMTsw

> <BIOSOLVEIT.TORSION_QUALITY range: red, yellow, green, not rotatable>
yellow

> <BIOSOLVEIT.TPSA>
86.37

> <BIOSOLVEIT.SEESAR_FAVORITE>
favorite

> <smc_score>
0.938

> <QED_score>
0.732

> <distance>
0.706

> <SimilarityPheSA_1>
0.649

> <Smiles>
O=C(Cn1nnnc1CN1CCOCC1)NCc1cc(Cl)c(Cl)cc1F

> <Similarity_SkelSpheres>
0.574

> <Cluster No>
451.0

> <QueryID>
JAN-GHE-5a013bed-2

> <SimilarityPheSA>
0.6491

> <Postera series>
3-aminopyridine-like

> <PDB_code>
Mpro-x10466

> <Approach>
DGM_exploratory_RL

> <ID>
20210628_947

> <SimilarityPheSA_2>
0.664

> <OPTIBRIUM.logD>
-0.269118

> <OPTIBRIUM.BBB category>
-

> <OPTIBRIUM.logP>
1.36368

> <OPTIBRIUM.P-gp category>
yes

> <OPTIBRIUM.logS>
3.43185

> <OPTIBRIUM.HIA category>
-

> <OPTIBRIUM.PPB90 category>
low

> <OPTIBRIUM.2D6 affinity category>
low

> <OPTIBRIUM.hERG pIC50>
5.13977

> <OPTIBRIUM.2C9 pKi>
4.68636

> <OPTIBRIUM.BBB log([brain]:[blood])>
-0.437916

> <OPTIBRIUM.logS @ pH7.4>
3.23591

$$$$
Compound 1677_1_04
haSeeSAR  07122114523D 1   1.00000     0.00000     0
SeeSAR 11.0.2 hazemaj
 44 46  0  0  0  0            999 V2000
   22.0020   -7.3176    3.3472 Cl  0  0  0  0  0  0  0  0  0  0  0  0
   21.0179   -8.7526    3.7204 C   0  0  0  0  0  0  0  0  0  0  0  0
   19.6810   -8.7957    3.3430 C   0  0  0  0  0  0  0  0  0  0  0  0
   21.5972   -9.8245    4.3913 C   0  0  0  0  0  0  0  0  0  0  0  0
   18.9606   -7.4120    2.4860 Cl  0  0  0  0  0  0  0  0  0  0  0  0
   18.8981   -9.9090    3.6287 C   0  0  0  0  0  0  0  0  0  0  0  0
   20.8156  -10.9389    4.6772 C   0  0  0  0  0  0  0  0  0  0  0  0
   19.4785  -10.9798    4.2994 C   0  0  0  0  0  0  0  0  0  0  0  0
   21.3574  -11.9701    5.3161 F   0  0  0  0  0  0  0  0  0  0  0  0
   18.6394  -12.2053    4.6214 C   0  0  0  0  0  0  0  0  0  0  0  0
   17.3665  -12.1336    3.8897 N   0  0  0  0  0  0  0  0  0  0  0  0
   16.3938  -11.3522    4.3297 C   0  0  0  0  0  0  0  0  0  0  0  0
   16.5547  -10.6851    5.3517 O   0  0  0  0  0  0  0  0  0  0  0  0
   15.0775  -11.2780    3.5731 C   0  0  0  0  0  0  0  0  0  0  0  0
   13.9595  -11.3397    4.5271 N   0  0  0  0  0  0  0  0  0  0  0  0
   12.9541  -10.5016    4.6083 N   0  0  0  0  0  0  0  0  0  0  0  0
   13.7736  -12.2694    5.4945 C   0  0  0  0  0  0  0  0  0  0  0  0
   12.1754  -10.8558    5.5417 N   0  0  0  0  0  0  0  0  0  0  0  0
   12.6616  -11.9383    6.1068 N   0  0  0  0  0  0  0  0  0  0  0  0
   14.6734  -13.4543    5.8080 C   0  0  0  0  0  0  0  0  0  0  0  0
   15.2695  -13.2784    7.1430 N   0  3  0  0  0  0  0  0  0  0  0  0
   16.6783  -13.6941    7.1261 C   0  0  0  0  0  0  0  0  0  0  0  0
   15.0747  -11.8909    7.6056 C   0  0  0  0  0  0  0  0  0  0  0  0
   17.5863  -12.5899    7.6517 C   0  0  0  0  0  0  0  0  0  0  0  0
   15.7976  -11.6891    8.9347 C   0  0  0  0  0  0  0  0  0  0  0  0
   17.1423  -12.1558    8.9338 O   0  0  0  0  0  0  0  0  0  0  0  0
   22.5589   -9.7944    4.6635 H   0  0  0  0  0  0  0  0  0  0  0  0
   17.9362   -9.9389    3.3568 H   0  0  0  0  0  0  0  0  0  0  0  0
   18.4577  -12.2360    5.6042 H   0  0  0  0  0  0  0  0  0  0  0  0
   19.1350  -13.0298    4.3482 H   0  0  0  0  0  0  0  0  0  0  0  0
   17.2357  -12.6756    3.0596 H   0  0  0  0  0  0  0  0  0  0  0  0
   15.0152  -12.0467    2.9365 H   0  0  0  0  0  0  0  0  0  0  0  0
   15.0338  -10.4188    3.0635 H   0  0  0  0  0  0  0  0  0  0  0  0
   15.4000  -13.5113    5.1233 H   0  0  0  0  0  0  0  0  0  0  0  0
   14.1337  -14.2961    5.7921 H   0  0  0  0  0  0  0  0  0  0  0  0
   16.9421  -13.9136    6.1868 H   0  0  0  0  0  0  0  0  0  0  0  0
   16.7856  -14.5056    7.7006 H   0  0  0  0  0  0  0  0  0  0  0  0
   14.0980  -11.7145    7.7276 H   0  0  0  0  0  0  0  0  0  0  0  0
   15.4453  -11.2581    6.9257 H   0  0  0  0  0  0  0  0  0  0  0  0
   17.5683  -11.8175    7.0171 H   0  0  0  0  0  0  0  0  0  0  0  0
   18.5207  -12.9383    7.7265 H   0  0  0  0  0  0  0  0  0  0  0  0
   15.2938  -12.1804    9.6453 H   0  0  0  0  0  0  0  0  0  0  0  0
   15.8031  -10.7116    9.1453 H   0  0  0  0  0  0  0  0  0  0  0  0
   14.7823  -13.8808    7.7752 H   0  0  0  0  0  0  0  0  0  0  0  0
  1  2  1  0  0  0  0
  2  3  2  0  0  0  0
  2  4  1  0  0  0  0
  3  5  1  0  0  0  0
  3  6  1  0  0  0  0
  4  7  2  0  0  0  0
  6  8  2  0  0  0  0
  7  9  1  0  0  0  0
  8 10  1  0  0  0  0
 10 11  1  0  0  0  0
 11 12  1  0  0  0  0
 12 13  2  0  0  0  0
 12 14  1  0  0  0  0
 14 15  1  0  0  0  0
 15 16  1  0  0  0  0
 15 17  1  0  0  0  0
 16 18  2  0  0  0  0
 17 19  2  0  0  0  0
 17 20  1  0  0  0  0
 20 21  1  0  0  0  0
 21 22  1  0  0  0  0
 21 23  1  0  0  0  0
 22 24  1  0  0  0  0
 23 25  1  0  0  0  0
 24 26  1  0  0  0  0
  7  8  1  0  0  0  0
 18 19  1  0  0  0  0
 25 26  1  0  0  0  0
  4 27  1  0  0  0  0
  6 28  1  0  0  0  0
 10 29  1  0  0  0  0
 10 30  1  0  0  0  0
 11 31  1  0  0  0  0
 14 32  1  0  0  0  0
 14 33  1  0  0  0  0
 20 34  1  0  0  0  0
 20 35  1  0  0  0  0
 22 36  1  0  0  0  0
 22 37  1  0  0  0  0
 23 38  1  0  0  0  0
 23 39  1  0  0  0  0
 24 40  1  0  0  0  0
 24 41  1  0  0  0  0
 25 42  1  0  0  0  0
 25 43  1  0  0  0  0
 21 44  1  0  0  0  0
M  CHG  1  21   1
M  END
> <BIOSOLVEIT.HYDE_ESTIMATED_AFFINITY_LOWER_BOUNDARY [nM]>
28847598083.965416

> <BIOSOLVEIT.HYDE_ESTIMATED_AFFINITY_UPPER_BOUNDARY [nM]>
2866179430140.192383

> <BIOSOLVEIT.HYDE_LIGAND_EFFICIENCY range: ++, +, 0, -, -->
--

> <BIOSOLVEIT.HYDE_LIGAND_LIPOPHILIC_EFFICIENCY range: ++, +, 0, -, -->
--

> <BIOSOLVEIT.INTER_CLASH range: red, yellow, green>
green

> <BIOSOLVEIT.INTRA_CLASH range: red, yellow, green>
yellow

> <BIOSOLVEIT.LOGP>
-0.1495

> <BIOSOLVEIT.MOLECULAR WEIGHT>
404.251

> <BIOSOLVEIT.MOLECULE_CHECKSUM>
MTQuMDM0Mzsw

> <BIOSOLVEIT.TORSION_QUALITY range: red, yellow, green, not rotatable>
red

> <BIOSOLVEIT.TPSA>
86.37

> <BIOSOLVEIT.SEESAR_FAVORITE>
favorite

> <smc_score>
0.938

> <QED_score>
0.732

> <distance>
0.706

> <SimilarityPheSA_1>
0.649

> <Smiles>
O=C(Cn1nnnc1CN1CCOCC1)NCc1cc(Cl)c(Cl)cc1F

> <Similarity_SkelSpheres>
0.574

> <Cluster No>
451.0

> <QueryID>
JAN-GHE-5a013bed-2

> <SimilarityPheSA>
0.6491

> <Postera series>
3-aminopyridine-like

> <PDB_code>
Mpro-x10466

> <Approach>
DGM_exploratory_RL

> <ID>
20210628_947

> <SimilarityPheSA_2>
0.664

> <OPTIBRIUM.logD>
-0.269118

> <OPTIBRIUM.BBB category>
-

> <OPTIBRIUM.logP>
1.36368

> <OPTIBRIUM.P-gp category>
yes

> <OPTIBRIUM.logS>
3.43185

> <OPTIBRIUM.HIA category>
-

> <OPTIBRIUM.PPB90 category>
low

> <OPTIBRIUM.2D6 affinity category>
low

> <OPTIBRIUM.hERG pIC50>
5.13977

> <OPTIBRIUM.2C9 pKi>
4.68636

> <OPTIBRIUM.BBB log([brain]:[blood])>
-0.437916

> <OPTIBRIUM.logS @ pH7.4>
3.23591

$$$$
Compound 1677_1_05
haSeeSAR  07122114523D 1   1.00000     0.00000     0
SeeSAR 11.0.2 hazemaj
 44 46  0  0  0  0            999 V2000
   22.2884   -8.1092    4.2559 Cl  0  0  0  0  0  0  0  0  0  0  0  0
   21.0052   -9.3274    4.0669 C   0  0  0  0  0  0  0  0  0  0  0  0
   19.8176   -8.9923    3.4274 C   0  0  0  0  0  0  0  0  0  0  0  0
   21.2013  -10.6113    4.5645 C   0  0  0  0  0  0  0  0  0  0  0  0
   19.5883   -7.3428    2.7991 Cl  0  0  0  0  0  0  0  0  0  0  0  0
   18.8045   -9.9323    3.2730 C   0  0  0  0  0  0  0  0  0  0  0  0
   20.1892  -11.5527    4.4105 C   0  0  0  0  0  0  0  0  0  0  0  0
   19.0019  -11.2155    3.7709 C   0  0  0  0  0  0  0  0  0  0  0  0
   20.3647  -12.7833    4.8798 F   0  0  0  0  0  0  0  0  0  0  0  0
   17.9064  -12.2568    3.6129 C   0  0  0  0  0  0  0  0  0  0  0  0
   17.1429  -12.3588    4.8649 N   0  0  0  0  0  0  0  0  0  0  0  0
   16.2403  -11.4397    5.1660 C   0  0  0  0  0  0  0  0  0  0  0  0
   16.0398  -10.4989    4.3978 O   0  0  0  0  0  0  0  0  0  0  0  0
   15.4510  -11.5451    6.4607 C   0  0  0  0  0  0  0  0  0  0  0  0
   14.0118  -11.5623    6.1574 N   0  0  0  0  0  0  0  0  0  0  0  0
   13.2180  -10.5217    6.0735 N   0  0  0  0  0  0  0  0  0  0  0  0
   13.2501  -12.6563    5.9168 C   0  0  0  0  0  0  0  0  0  0  0  0
   12.0423  -10.9008    5.7955 N   0  0  0  0  0  0  0  0  0  0  0  0
   12.0350  -12.2117    5.7003 N   0  0  0  0  0  0  0  0  0  0  0  0
   13.7106  -14.1053    5.9038 C   0  0  0  0  0  0  0  0  0  0  0  0
   13.5921  -14.6458    4.5391 N   0  3  0  0  0  0  0  0  0  0  0  0
   14.4037  -13.8683    3.5898 C   0  0  0  0  0  0  0  0  0  0  0  0
   14.0462  -16.0456    4.5579 C   0  0  0  0  0  0  0  0  0  0  0  0
   14.1506  -14.3883    2.1824 C   0  0  0  0  0  0  0  0  0  0  0  0
   14.2969  -16.5440    3.1423 C   0  0  0  0  0  0  0  0  0  0  0  0
   13.6467  -15.7197    2.1818 O   0  0  0  0  0  0  0  0  0  0  0  0
   22.0553  -10.8534    5.0251 H   0  0  0  0  0  0  0  0  0  0  0  0
   17.9504   -9.6901    2.8129 H   0  0  0  0  0  0  0  0  0  0  0  0
   18.3174  -13.1433    3.3999 H   0  0  0  0  0  0  0  0  0  0  0  0
   17.2939  -11.9863    2.8701 H   0  0  0  0  0  0  0  0  0  0  0  0
   17.3059  -13.1230    5.4890 H   0  0  0  0  0  0  0  0  0  0  0  0
   15.6594  -10.7595    7.0432 H   0  0  0  0  0  0  0  0  0  0  0  0
   15.7015  -12.3884    6.9361 H   0  0  0  0  0  0  0  0  0  0  0  0
   13.1402  -14.6421    6.5255 H   0  0  0  0  0  0  0  0  0  0  0  0
   14.6644  -14.1547    6.2001 H   0  0  0  0  0  0  0  0  0  0  0  0
   15.3727  -13.9692    3.8156 H   0  0  0  0  0  0  0  0  0  0  0  0
   14.1482  -12.9029    3.6419 H   0  0  0  0  0  0  0  0  0  0  0  0
   13.3439  -16.6135    4.9871 H   0  0  0  0  0  0  0  0  0  0  0  0
   14.8942  -16.1093    5.0841 H   0  0  0  0  0  0  0  0  0  0  0  0
   15.0108  -14.3696    1.6729 H   0  0  0  0  0  0  0  0  0  0  0  0
   13.4845  -13.7921    1.7341 H   0  0  0  0  0  0  0  0  0  0  0  0
   13.9488  -17.4778    3.0592 H   0  0  0  0  0  0  0  0  0  0  0  0
   15.2809  -16.5380    2.9641 H   0  0  0  0  0  0  0  0  0  0  0  0
   12.6338  -14.6147    4.2550 H   0  0  0  0  0  0  0  0  0  0  0  0
  1  2  1  0  0  0  0
  2  3  2  0  0  0  0
  2  4  1  0  0  0  0
  3  5  1  0  0  0  0
  3  6  1  0  0  0  0
  4  7  2  0  0  0  0
  6  8  2  0  0  0  0
  7  9  1  0  0  0  0
  8 10  1  0  0  0  0
 10 11  1  0  0  0  0
 11 12  1  0  0  0  0
 12 13  2  0  0  0  0
 12 14  1  0  0  0  0
 14 15  1  0  0  0  0
 15 16  1  0  0  0  0
 15 17  1  0  0  0  0
 16 18  2  0  0  0  0
 17 19  2  0  0  0  0
 17 20  1  0  0  0  0
 20 21  1  0  0  0  0
 21 22  1  0  0  0  0
 21 23  1  0  0  0  0
 22 24  1  0  0  0  0
 23 25  1  0  0  0  0
 24 26  1  0  0  0  0
  7  8  1  0  0  0  0
 18 19  1  0  0  0  0
 25 26  1  0  0  0  0
  4 27  1  0  0  0  0
  6 28  1  0  0  0  0
 10 29  1  0  0  0  0
 10 30  1  0  0  0  0
 11 31  1  0  0  0  0
 14 32  1  0  0  0  0
 14 33  1  0  0  0  0
 20 34  1  0  0  0  0
 20 35  1  0  0  0  0
 22 36  1  0  0  0  0
 22 37  1  0  0  0  0
 23 38  1  0  0  0  0
 23 39  1  0  0  0  0
 24 40  1  0  0  0  0
 24 41  1  0  0  0  0
 25 42  1  0  0  0  0
 25 43  1  0  0  0  0
 21 44  1  0  0  0  0
M  CHG  1  21   1
M  END
> <BIOSOLVEIT.HYDE_ESTIMATED_AFFINITY_LOWER_BOUNDARY [nM]>
34532287681.320107

> <BIOSOLVEIT.HYDE_ESTIMATED_AFFINITY_UPPER_BOUNDARY [nM]>
3430986952182.259766

> <BIOSOLVEIT.HYDE_LIGAND_EFFICIENCY range: ++, +, 0, -, -->
--

> <BIOSOLVEIT.HYDE_LIGAND_LIPOPHILIC_EFFICIENCY range: ++, +, 0, -, -->
--

> <BIOSOLVEIT.INTER_CLASH range: red, yellow, green>
green

> <BIOSOLVEIT.INTRA_CLASH range: red, yellow, green>
green

> <BIOSOLVEIT.LOGP>
-0.1495

> <BIOSOLVEIT.MOLECULAR WEIGHT>
404.251

> <BIOSOLVEIT.MOLECULE_CHECKSUM>
MTQuNDgwMjsw

> <BIOSOLVEIT.TORSION_QUALITY range: red, yellow, green, not rotatable>
green

> <BIOSOLVEIT.TPSA>
86.37

> <BIOSOLVEIT.SEESAR_FAVORITE>
favorite

> <smc_score>
0.938

> <QED_score>
0.732

> <distance>
0.706

> <SimilarityPheSA_1>
0.649

> <Smiles>
O=C(Cn1nnnc1CN1CCOCC1)NCc1cc(Cl)c(Cl)cc1F

> <Similarity_SkelSpheres>
0.574

> <Cluster No>
451.0

> <QueryID>
JAN-GHE-5a013bed-2

> <SimilarityPheSA>
0.6491

> <Postera series>
3-aminopyridine-like

> <PDB_code>
Mpro-x10466

> <Approach>
DGM_exploratory_RL

> <ID>
20210628_947

> <SimilarityPheSA_2>
0.664

> <OPTIBRIUM.logD>
-0.269118

> <OPTIBRIUM.BBB category>
-

> <OPTIBRIUM.logP>
1.36368

> <OPTIBRIUM.P-gp category>
yes

> <OPTIBRIUM.logS>
3.43185

> <OPTIBRIUM.HIA category>
-

> <OPTIBRIUM.PPB90 category>
low

> <OPTIBRIUM.2D6 affinity category>
low

> <OPTIBRIUM.hERG pIC50>
5.13977

> <OPTIBRIUM.2C9 pKi>
4.68636

> <OPTIBRIUM.BBB log([brain]:[blood])>
-0.437916

> <OPTIBRIUM.logS @ pH7.4>
3.23591

$$$$
Compound 1714_1_03
haSeeSAR  07122114523D 1   1.00000     0.00000     0
SeeSAR 11.0.2 hazemaj
 34 36  0  0  0  0            999 V2000
   15.7213  -17.0850    5.8131 Cl  0  0  0  0  0  0  0  0  0  0  0  0
   16.6174  -15.9247    4.8024 C   0  0  0  0  0  0  0  0  0  0  0  0
   17.8774  -16.2725    4.3310 C   0  0  0  0  0  0  0  0  0  0  0  0
   16.1046  -14.6775    4.4618 C   0  0  0  0  0  0  0  0  0  0  0  0
   18.5945  -17.8525    4.7285 Cl  0  0  0  0  0  0  0  0  0  0  0  0
   18.6071  -15.3851    3.5497 C   0  0  0  0  0  0  0  0  0  0  0  0
   16.8206  -13.7766    3.6804 C   0  0  0  0  0  0  0  0  0  0  0  0
   18.0777  -14.1399    3.2449 C   0  0  0  0  0  0  0  0  0  0  0  0
   16.5108  -12.4939    3.2194 N   0  0  0  0  0  0  0  0  0  0  0  0
   18.6343  -12.9662    2.4669 C   0  0  0  0  0  0  0  0  0  0  0  0
   15.5591  -11.6177    3.7624 C   0  0  0  0  0  0  0  0  0  0  0  0
   17.3862  -12.1965    2.0929 C   0  0  0  0  0  0  0  0  0  0  0  0
   15.8951  -10.5334    4.1515 O   0  0  0  0  0  0  0  0  0  0  0  0
   14.2463  -11.9999    3.8482 N   0  0  0  0  0  0  0  0  0  0  0  0
   13.2491  -11.0819    4.4171 C   0  0  0  0  0  0  0  0  0  0  0  0
   13.2599  -11.1981    5.9327 C   0  0  0  0  0  0  0  0  0  0  0  0
   12.5336  -10.3656    6.6932 N   0  0  0  0  0  0  0  0  0  0  0  0
   14.0415  -12.1900    6.5152 C   0  0  0  0  0  0  0  0  0  0  0  0
   12.5352  -10.4596    8.0307 C   0  0  0  0  0  0  0  0  0  0  0  0
   14.0550  -12.3013    7.9012 C   0  0  0  0  0  0  0  0  0  0  0  0
   13.2956  -11.4300    8.6746 C   0  0  0  0  0  0  0  0  0  0  0  0
   15.1948  -14.4210    4.7883 H   0  0  0  0  0  0  0  0  0  0  0  0
   19.5109  -15.6432    3.2084 H   0  0  0  0  0  0  0  0  0  0  0  0
   19.1264  -13.2738    1.6524 H   0  0  0  0  0  0  0  0  0  0  0  0
   19.2432  -12.4126    3.0349 H   0  0  0  0  0  0  0  0  0  0  0  0
   17.5695  -11.2161    2.0220 H   0  0  0  0  0  0  0  0  0  0  0  0
   16.9983  -12.5262    1.2322 H   0  0  0  0  0  0  0  0  0  0  0  0
   13.9665  -12.9036    3.5240 H   0  0  0  0  0  0  0  0  0  0  0  0
   12.3416  -11.3193    4.0710 H   0  0  0  0  0  0  0  0  0  0  0  0
   13.4715  -10.1432    4.1533 H   0  0  0  0  0  0  0  0  0  0  0  0
   14.5831  -12.8109    5.9485 H   0  0  0  0  0  0  0  0  0  0  0  0
   11.9834   -9.8247    8.5715 H   0  0  0  0  0  0  0  0  0  0  0  0
   14.6101  -13.0070    8.3414 H   0  0  0  0  0  0  0  0  0  0  0  0
   13.2962  -11.4997    9.6722 H   0  0  0  0  0  0  0  0  0  0  0  0
  1  2  1  0  0  0  0
  2  3  2  0  0  0  0
  2  4  1  0  0  0  0
  3  5  1  0  0  0  0
  3  6  1  0  0  0  0
  4  7  2  0  0  0  0
  6  8  2  0  0  0  0
  7  9  1  0  0  0  0
  8 10  1  0  0  0  0
  9 11  1  0  0  0  0
  9 12  1  0  0  0  0
 11 13  2  0  0  0  0
 11 14  1  0  0  0  0
 14 15  1  0  0  0  0
 15 16  1  0  0  0  0
 16 17  2  0  0  0  0
 16 18  1  0  0  0  0
 17 19  1  0  0  0  0
 18 20  2  0  0  0  0
 19 21  2  0  0  0  0
  7  8  1  0  0  0  0
 10 12  1  0  0  0  0
 20 21  1  0  0  0  0
  4 22  1  0  0  0  0
  6 23  1  0  0  0  0
 10 24  1  0  0  0  0
 10 25  1  0  0  0  0
 12 26  1  0  0  0  0
 12 27  1  0  0  0  0
 14 28  1  0  0  0  0
 15 29  1  0  0  0  0
 15 30  1  0  0  0  0
 18 31  1  0  0  0  0
 19 32  1  0  0  0  0
 20 33  1  0  0  0  0
 21 34  1  0  0  0  0
M  END
> <BIOSOLVEIT.HYDE_ESTIMATED_AFFINITY_LOWER_BOUNDARY [nM]>
50129.297063

> <BIOSOLVEIT.HYDE_ESTIMATED_AFFINITY_UPPER_BOUNDARY [nM]>
4980642.051093

> <BIOSOLVEIT.HYDE_LIGAND_EFFICIENCY range: ++, +, 0, -, -->
-

> <BIOSOLVEIT.HYDE_LIGAND_LIPOPHILIC_EFFICIENCY range: ++, +, 0, -, -->
--

> <BIOSOLVEIT.INTER_CLASH range: red, yellow, green>
green

> <BIOSOLVEIT.INTRA_CLASH range: red, yellow, green>
green

> <BIOSOLVEIT.LOGP>
3.6607

> <BIOSOLVEIT.MOLECULAR WEIGHT>
322.194

> <BIOSOLVEIT.MOLECULE_CHECKSUM>
LTE4Ljg0Mzk7MC44OTczMjk=

> <BIOSOLVEIT.TORSION_QUALITY range: red, yellow, green, not rotatable>
yellow

> <BIOSOLVEIT.TPSA>
45.23

> <BIOSOLVEIT.SEESAR_FAVORITE>
favorite

> <smc_score>
0.563

> <QED_score>
0.917

> <distance>
0.716

> <SimilarityPheSA_1>
0.638

> <Smiles>
O=C(NCc1ccccn1)N1CCc2cc(Cl)c(Cl)cc21

> <Similarity_SkelSpheres>
0.664

> <Cluster No>
474.0

> <QueryID>
ALP-POS-ce760d3f-2

> <SimilarityPheSA>
0.6376

> <Postera series>
3-aminopyridine-like

> <PDB_code>
Mpro-x12659

> <Approach>
DGM_exploratory_RL

> <ID>
20210628_984

> <SimilarityPheSA_2>
0.787

> <OPTIBRIUM.logD>
3.14459

> <OPTIBRIUM.BBB category>
+

> <OPTIBRIUM.logP>
3.14459

> <OPTIBRIUM.P-gp category>
no

> <OPTIBRIUM.logS>
1.35823

> <OPTIBRIUM.HIA category>
+

> <OPTIBRIUM.PPB90 category>
high

> <OPTIBRIUM.2D6 affinity category>
medium

> <OPTIBRIUM.hERG pIC50>
4.87673

> <OPTIBRIUM.2C9 pKi>
5.2414

> <OPTIBRIUM.BBB log([brain]:[blood])>
0.0528115

> <OPTIBRIUM.logS @ pH7.4>
1.35823

$$$$
Compound 1714_1_05
haSeeSAR  07122114523D 1   1.00000     0.00000     0
SeeSAR 11.0.2 hazemaj
 34 36  0  0  0  0            999 V2000
   19.4619  -13.7704    7.7596 Cl  0  0  0  0  0  0  0  0  0  0  0  0
   18.9254  -13.9574    6.0715 C   0  0  0  0  0  0  0  0  0  0  0  0
   19.4179  -15.0141    5.3166 C   0  0  0  0  0  0  0  0  0  0  0  0
   18.0276  -13.0715    5.4849 C   0  0  0  0  0  0  0  0  0  0  0  0
   20.5718  -16.1707    6.0218 Cl  0  0  0  0  0  0  0  0  0  0  0  0
   19.0153  -15.1861    3.9966 C   0  0  0  0  0  0  0  0  0  0  0  0
   17.6201  -13.2387    4.1677 C   0  0  0  0  0  0  0  0  0  0  0  0
   18.1045  -14.2915    3.4302 C   0  0  0  0  0  0  0  0  0  0  0  0
   16.7412  -12.5061    3.3646 N   0  0  0  0  0  0  0  0  0  0  0  0
   17.4745  -14.2383    2.0471 C   0  0  0  0  0  0  0  0  0  0  0  0
   15.7414  -11.6369    3.8263 C   0  0  0  0  0  0  0  0  0  0  0  0
   16.9920  -12.8007    1.9557 C   0  0  0  0  0  0  0  0  0  0  0  0
   16.0189  -10.5086    4.1262 O   0  0  0  0  0  0  0  0  0  0  0  0
   14.4483  -12.0762    3.9349 N   0  0  0  0  0  0  0  0  0  0  0  0
   13.4007  -11.1655    4.4187 C   0  0  0  0  0  0  0  0  0  0  0  0
   13.3412  -11.2226    5.9363 C   0  0  0  0  0  0  0  0  0  0  0  0
   12.5590  -10.3804    6.6278 N   0  0  0  0  0  0  0  0  0  0  0  0
   14.1177  -12.1702    6.5944 C   0  0  0  0  0  0  0  0  0  0  0  0
   12.4983  -10.4223    7.9666 C   0  0  0  0  0  0  0  0  0  0  0  0
   14.0670  -12.2272    7.9830 C   0  0  0  0  0  0  0  0  0  0  0  0
   13.2502  -11.3468    8.6840 C   0  0  0  0  0  0  0  0  0  0  0  0
   17.6710  -12.3046    6.0185 H   0  0  0  0  0  0  0  0  0  0  0  0
   19.3760  -15.9461    3.4559 H   0  0  0  0  0  0  0  0  0  0  0  0
   16.7113  -14.8802    1.9734 H   0  0  0  0  0  0  0  0  0  0  0  0
   18.1484  -14.4384    1.3358 H   0  0  0  0  0  0  0  0  0  0  0  0
   17.6944  -12.2003    1.5736 H   0  0  0  0  0  0  0  0  0  0  0  0
   16.1574  -12.7267    1.4100 H   0  0  0  0  0  0  0  0  0  0  0  0
   14.2171  -13.0165    3.6850 H   0  0  0  0  0  0  0  0  0  0  0  0
   12.5176  -11.4420    4.0398 H   0  0  0  0  0  0  0  0  0  0  0  0
   13.6105  -10.2319    4.1282 H   0  0  0  0  0  0  0  0  0  0  0  0
   14.7009  -12.7982    6.0793 H   0  0  0  0  0  0  0  0  0  0  0  0
   11.9058   -9.7815    8.4549 H   0  0  0  0  0  0  0  0  0  0  0  0
   14.6172  -12.9006    8.4767 H   0  0  0  0  0  0  0  0  0  0  0  0
   13.2043  -11.3776    9.6824 H   0  0  0  0  0  0  0  0  0  0  0  0
  1  2  1  0  0  0  0
  2  3  2  0  0  0  0
  2  4  1  0  0  0  0
  3  5  1  0  0  0  0
  3  6  1  0  0  0  0
  4  7  2  0  0  0  0
  6  8  2  0  0  0  0
  7  9  1  0  0  0  0
  8 10  1  0  0  0  0
  9 11  1  0  0  0  0
  9 12  1  0  0  0  0
 11 13  2  0  0  0  0
 11 14  1  0  0  0  0
 14 15  1  0  0  0  0
 15 16  1  0  0  0  0
 16 17  2  0  0  0  0
 16 18  1  0  0  0  0
 17 19  1  0  0  0  0
 18 20  2  0  0  0  0
 19 21  2  0  0  0  0
  7  8  1  0  0  0  0
 10 12  1  0  0  0  0
 20 21  1  0  0  0  0
  4 22  1  0  0  0  0
  6 23  1  0  0  0  0
 10 24  1  0  0  0  0
 10 25  1  0  0  0  0
 12 26  1  0  0  0  0
 12 27  1  0  0  0  0
 14 28  1  0  0  0  0
 15 29  1  0  0  0  0
 15 30  1  0  0  0  0
 18 31  1  0  0  0  0
 19 32  1  0  0  0  0
 20 33  1  0  0  0  0
 21 34  1  0  0  0  0
M  END
> <BIOSOLVEIT.HYDE_ESTIMATED_AFFINITY_LOWER_BOUNDARY [nM]>
2433906.929009

> <BIOSOLVEIT.HYDE_ESTIMATED_AFFINITY_UPPER_BOUNDARY [nM]>
241823043.793694

> <BIOSOLVEIT.HYDE_LIGAND_EFFICIENCY range: ++, +, 0, -, -->
--

> <BIOSOLVEIT.HYDE_LIGAND_LIPOPHILIC_EFFICIENCY range: ++, +, 0, -, -->
--

> <BIOSOLVEIT.INTER_CLASH range: red, yellow, green>
green

> <BIOSOLVEIT.INTRA_CLASH range: red, yellow, green>
green

> <BIOSOLVEIT.LOGP>
3.6607

> <BIOSOLVEIT.MOLECULAR WEIGHT>
322.194

> <BIOSOLVEIT.MOLECULE_CHECKSUM>
LTkuMjE5OzAuNDM5

> <BIOSOLVEIT.TORSION_QUALITY range: red, yellow, green, not rotatable>
yellow

> <BIOSOLVEIT.TPSA>
45.23

> <BIOSOLVEIT.SEESAR_FAVORITE>
favorite

> <smc_score>
0.563

> <QED_score>
0.917

> <distance>
0.716

> <SimilarityPheSA_1>
0.638

> <Smiles>
O=C(NCc1ccccn1)N1CCc2cc(Cl)c(Cl)cc21

> <Similarity_SkelSpheres>
0.664

> <Cluster No>
474.0

> <QueryID>
ALP-POS-ce760d3f-2

> <SimilarityPheSA>
0.6376

> <Postera series>
3-aminopyridine-like

> <PDB_code>
Mpro-x12659

> <Approach>
DGM_exploratory_RL

> <ID>
20210628_984

> <SimilarityPheSA_2>
0.787

> <OPTIBRIUM.logD>
3.14459

> <OPTIBRIUM.BBB category>
+

> <OPTIBRIUM.logP>
3.14459

> <OPTIBRIUM.P-gp category>
no

> <OPTIBRIUM.logS>
1.35823

> <OPTIBRIUM.HIA category>
+

> <OPTIBRIUM.PPB90 category>
high

> <OPTIBRIUM.2D6 affinity category>
medium

> <OPTIBRIUM.hERG pIC50>
4.87673

> <OPTIBRIUM.2C9 pKi>
5.2414

> <OPTIBRIUM.BBB log([brain]:[blood])>
0.0528115

> <OPTIBRIUM.logS @ pH7.4>
1.35823

$$$$
Compound 1714_1_06
haSeeSAR  07122114523D 1   1.00000     0.00000     0
SeeSAR 11.0.2 hazemaj
 34 36  0  0  0  0            999 V2000
   17.8161  -15.6321    7.5435 Cl  0  0  0  0  0  0  0  0  0  0  0  0
   18.0905  -14.9003    5.9434 C   0  0  0  0  0  0  0  0  0  0  0  0
   19.2403  -15.2323    5.2375 C   0  0  0  0  0  0  0  0  0  0  0  0
   17.1952  -14.0056    5.3667 C   0  0  0  0  0  0  0  0  0  0  0  0
   20.4289  -16.3706    5.9161 Cl  0  0  0  0  0  0  0  0  0  0  0  0
   19.4895  -14.6699    3.9918 C   0  0  0  0  0  0  0  0  0  0  0  0
   17.4280  -13.4331    4.1205 C   0  0  0  0  0  0  0  0  0  0  0  0
   18.5882  -13.7641    3.4524 C   0  0  0  0  0  0  0  0  0  0  0  0
   16.6826  -12.5294    3.3581 N   0  0  0  0  0  0  0  0  0  0  0  0
   18.6004  -12.9694    2.1635 C   0  0  0  0  0  0  0  0  0  0  0  0
   15.6962  -11.6509    3.8312 C   0  0  0  0  0  0  0  0  0  0  0  0
   17.1399  -12.6204    1.9773 C   0  0  0  0  0  0  0  0  0  0  0  0
   15.9913  -10.5314    4.1469 O   0  0  0  0  0  0  0  0  0  0  0  0
   14.3963  -12.0713    3.9327 N   0  0  0  0  0  0  0  0  0  0  0  0
   13.3628  -11.1509    4.4284 C   0  0  0  0  0  0  0  0  0  0  0  0
   13.3143  -11.2136    5.9462 C   0  0  0  0  0  0  0  0  0  0  0  0
   12.5531  -10.3640    6.6524 N   0  0  0  0  0  0  0  0  0  0  0  0
   14.0806  -12.1790    6.5909 C   0  0  0  0  0  0  0  0  0  0  0  0
   12.5030  -10.4110    7.9923 C   0  0  0  0  0  0  0  0  0  0  0  0
   14.0413  -12.2432    7.9794 C   0  0  0  0  0  0  0  0  0  0  0  0
   13.2473  -11.3536    8.6943 C   0  0  0  0  0  0  0  0  0  0  0  0
   16.3601  -13.7670    5.8623 H   0  0  0  0  0  0  0  0  0  0  0  0
   20.3158  -14.9172    3.4858 H   0  0  0  0  0  0  0  0  0  0  0  0
   18.9395  -13.5219    1.4020 H   0  0  0  0  0  0  0  0  0  0  0  0
   19.1601  -12.1455    2.2527 H   0  0  0  0  0  0  0  0  0  0  0  0
   17.0308  -11.7492    1.4986 H   0  0  0  0  0  0  0  0  0  0  0  0
   16.6538  -13.3380    1.4785 H   0  0  0  0  0  0  0  0  0  0  0  0
   14.1505  -13.0042    3.6695 H   0  0  0  0  0  0  0  0  0  0  0  0
   12.4737  -11.4159    4.0552 H   0  0  0  0  0  0  0  0  0  0  0  0
   13.5808  -10.2184    4.1401 H   0  0  0  0  0  0  0  0  0  0  0  0
   14.6483  -12.8138    6.0667 H   0  0  0  0  0  0  0  0  0  0  0  0
   11.9261   -9.7634    8.4902 H   0  0  0  0  0  0  0  0  0  0  0  0
   14.5842  -12.9293    8.4637 H   0  0  0  0  0  0  0  0  0  0  0  0
   13.2119  -11.3906    9.6930 H   0  0  0  0  0  0  0  0  0  0  0  0
  1  2  1  0  0  0  0
  2  3  2  0  0  0  0
  2  4  1  0  0  0  0
  3  5  1  0  0  0  0
  3  6  1  0  0  0  0
  4  7  2  0  0  0  0
  6  8  2  0  0  0  0
  7  9  1  0  0  0  0
  8 10  1  0  0  0  0
  9 11  1  0  0  0  0
  9 12  1  0  0  0  0
 11 13  2  0  0  0  0
 11 14  1  0  0  0  0
 14 15  1  0  0  0  0
 15 16  1  0  0  0  0
 16 17  2  0  0  0  0
 16 18  1  0  0  0  0
 17 19  1  0  0  0  0
 18 20  2  0  0  0  0
 19 21  2  0  0  0  0
  7  8  1  0  0  0  0
 10 12  1  0  0  0  0
 20 21  1  0  0  0  0
  4 22  1  0  0  0  0
  6 23  1  0  0  0  0
 10 24  1  0  0  0  0
 10 25  1  0  0  0  0
 12 26  1  0  0  0  0
 12 27  1  0  0  0  0
 14 28  1  0  0  0  0
 15 29  1  0  0  0  0
 15 30  1  0  0  0  0
 18 31  1  0  0  0  0
 19 32  1  0  0  0  0
 20 33  1  0  0  0  0
 21 34  1  0  0  0  0
M  END
> <BIOSOLVEIT.HYDE_ESTIMATED_AFFINITY_LOWER_BOUNDARY [nM]>
284883.414603

> <BIOSOLVEIT.HYDE_ESTIMATED_AFFINITY_UPPER_BOUNDARY [nM]>
28304851.604876

> <BIOSOLVEIT.HYDE_LIGAND_EFFICIENCY range: ++, +, 0, -, -->
--

> <BIOSOLVEIT.HYDE_LIGAND_LIPOPHILIC_EFFICIENCY range: ++, +, 0, -, -->
--

> <BIOSOLVEIT.INTER_CLASH range: red, yellow, green>
green

> <BIOSOLVEIT.INTRA_CLASH range: red, yellow, green>
green

> <BIOSOLVEIT.LOGP>
3.6607

> <BIOSOLVEIT.MOLECULAR WEIGHT>
322.194

> <BIOSOLVEIT.MOLECULE_CHECKSUM>
LTE0LjUzNjg7MC42OTIyMjg=

> <BIOSOLVEIT.TORSION_QUALITY range: red, yellow, green, not rotatable>
yellow

> <BIOSOLVEIT.TPSA>
45.23

> <BIOSOLVEIT.SEESAR_FAVORITE>
favorite

> <smc_score>
0.563

> <QED_score>
0.917

> <distance>
0.716

> <SimilarityPheSA_1>
0.638

> <Smiles>
O=C(NCc1ccccn1)N1CCc2cc(Cl)c(Cl)cc21

> <Similarity_SkelSpheres>
0.664

> <Cluster No>
474.0

> <QueryID>
ALP-POS-ce760d3f-2

> <SimilarityPheSA>
0.6376

> <Postera series>
3-aminopyridine-like

> <PDB_code>
Mpro-x12659

> <Approach>
DGM_exploratory_RL

> <ID>
20210628_984

> <SimilarityPheSA_2>
0.787

> <OPTIBRIUM.logD>
3.14459

> <OPTIBRIUM.BBB category>
+

> <OPTIBRIUM.logP>
3.14459

> <OPTIBRIUM.P-gp category>
no

> <OPTIBRIUM.logS>
1.35823

> <OPTIBRIUM.HIA category>
+

> <OPTIBRIUM.PPB90 category>
high

> <OPTIBRIUM.2D6 affinity category>
medium

> <OPTIBRIUM.hERG pIC50>
4.87673

> <OPTIBRIUM.2C9 pKi>
5.2414

> <OPTIBRIUM.BBB log([brain]:[blood])>
0.0528115

> <OPTIBRIUM.logS @ pH7.4>
1.35823

$$$$
Compound 1714_1_10
haSeeSAR  07122114523D 1   1.00000     0.00000     0
SeeSAR 11.0.2 hazemaj
 34 36  0  0  0  0            999 V2000
   19.4173   -7.3835    3.3268 Cl  0  0  0  0  0  0  0  0  0  0  0  0
   19.1881   -9.1453    3.2072 C   0  0  0  0  0  0  0  0  0  0  0  0
   20.1427   -9.9067    2.5443 C   0  0  0  0  0  0  0  0  0  0  0  0
   18.0868   -9.7951    3.7547 C   0  0  0  0  0  0  0  0  0  0  0  0
   21.5768   -9.1403    1.8198 Cl  0  0  0  0  0  0  0  0  0  0  0  0
   19.9874  -11.2821    2.4236 C   0  0  0  0  0  0  0  0  0  0  0  0
   17.9151  -11.1711    3.6440 C   0  0  0  0  0  0  0  0  0  0  0  0
   18.8675  -11.8986    2.9614 C   0  0  0  0  0  0  0  0  0  0  0  0
   16.9091  -12.0233    4.1078 N   0  0  0  0  0  0  0  0  0  0  0  0
   18.4062  -13.3408    2.9582 C   0  0  0  0  0  0  0  0  0  0  0  0
   15.6007  -11.6584    4.4592 C   0  0  0  0  0  0  0  0  0  0  0  0
   17.4394  -13.3806    4.1218 C   0  0  0  0  0  0  0  0  0  0  0  0
   15.3801  -10.5625    4.8955 O   0  0  0  0  0  0  0  0  0  0  0  0
   14.5750  -12.5534    4.3044 N   0  0  0  0  0  0  0  0  0  0  0  0
   13.2042  -12.1710    4.6726 C   0  0  0  0  0  0  0  0  0  0  0  0
   13.1655  -11.7745    6.1393 C   0  0  0  0  0  0  0  0  0  0  0  0
   12.5009  -10.6822    6.5460 N   0  0  0  0  0  0  0  0  0  0  0  0
   13.8378  -12.5753    7.0568 C   0  0  0  0  0  0  0  0  0  0  0  0
   12.4604  -10.3234    7.8382 C   0  0  0  0  0  0  0  0  0  0  0  0
   13.8067  -12.2195    8.4006 C   0  0  0  0  0  0  0  0  0  0  0  0
   13.1136  -11.0834    8.8032 C   0  0  0  0  0  0  0  0  0  0  0  0
   17.3986   -9.2576    4.2418 H   0  0  0  0  0  0  0  0  0  0  0  0
   20.6807  -11.8256    1.9505 H   0  0  0  0  0  0  0  0  0  0  0  0
   19.1732  -13.9654    3.1047 H   0  0  0  0  0  0  0  0  0  0  0  0
   17.9477  -13.5712    2.0999 H   0  0  0  0  0  0  0  0  0  0  0  0
   16.7173  -14.0562    3.9733 H   0  0  0  0  0  0  0  0  0  0  0  0
   17.9105  -13.5796    4.9811 H   0  0  0  0  0  0  0  0  0  0  0  0
   14.7589  -13.4666    3.9408 H   0  0  0  0  0  0  0  0  0  0  0  0
   12.5900  -12.9453    4.5204 H   0  0  0  0  0  0  0  0  0  0  0  0
   12.9114  -11.3977    4.1103 H   0  0  0  0  0  0  0  0  0  0  0  0
   14.3332  -13.3902    6.7561 H   0  0  0  0  0  0  0  0  0  0  0  0
   11.9568   -9.5033    8.1099 H   0  0  0  0  0  0  0  0  0  0  0  0
   14.2829  -12.7807    9.0776 H   0  0  0  0  0  0  0  0  0  0  0  0
   13.0851  -10.8181    9.7669 H   0  0  0  0  0  0  0  0  0  0  0  0
  1  2  1  0  0  0  0
  2  3  2  0  0  0  0
  2  4  1  0  0  0  0
  3  5  1  0  0  0  0
  3  6  1  0  0  0  0
  4  7  2  0  0  0  0
  6  8  2  0  0  0  0
  7  9  1  0  0  0  0
  8 10  1  0  0  0  0
  9 11  1  0  0  0  0
  9 12  1  0  0  0  0
 11 13  2  0  0  0  0
 11 14  1  0  0  0  0
 14 15  1  0  0  0  0
 15 16  1  0  0  0  0
 16 17  2  0  0  0  0
 16 18  1  0  0  0  0
 17 19  1  0  0  0  0
 18 20  2  0  0  0  0
 19 21  2  0  0  0  0
  7  8  1  0  0  0  0
 10 12  1  0  0  0  0
 20 21  1  0  0  0  0
  4 22  1  0  0  0  0
  6 23  1  0  0  0  0
 10 24  1  0  0  0  0
 10 25  1  0  0  0  0
 12 26  1  0  0  0  0
 12 27  1  0  0  0  0
 14 28  1  0  0  0  0
 15 29  1  0  0  0  0
 15 30  1  0  0  0  0
 18 31  1  0  0  0  0
 19 32  1  0  0  0  0
 20 33  1  0  0  0  0
 21 34  1  0  0  0  0
M  END
> <BIOSOLVEIT.HYDE_ESTIMATED_AFFINITY_LOWER_BOUNDARY [nM]>
101300.194071

> <BIOSOLVEIT.HYDE_ESTIMATED_AFFINITY_UPPER_BOUNDARY [nM]>
10064773.215085

> <BIOSOLVEIT.HYDE_LIGAND_EFFICIENCY range: ++, +, 0, -, -->
--

> <BIOSOLVEIT.HYDE_LIGAND_LIPOPHILIC_EFFICIENCY range: ++, +, 0, -, -->
--

> <BIOSOLVEIT.INTER_CLASH range: red, yellow, green>
yellow

> <BIOSOLVEIT.INTRA_CLASH range: red, yellow, green>
yellow

> <BIOSOLVEIT.LOGP>
3.6607

> <BIOSOLVEIT.MOLECULAR WEIGHT>
322.194

> <BIOSOLVEIT.MOLECULE_CHECKSUM>
LTE3LjE7MC44MTQyODY=

> <BIOSOLVEIT.TORSION_QUALITY range: red, yellow, green, not rotatable>
yellow

> <BIOSOLVEIT.TPSA>
45.23

> <BIOSOLVEIT.SEESAR_FAVORITE>
favorite

> <smc_score>
0.563

> <QED_score>
0.917

> <distance>
0.716

> <SimilarityPheSA_1>
0.638

> <Smiles>
O=C(NCc1ccccn1)N1CCc2cc(Cl)c(Cl)cc21

> <Similarity_SkelSpheres>
0.664

> <Cluster No>
474.0

> <QueryID>
ALP-POS-ce760d3f-2

> <SimilarityPheSA>
0.6376

> <Postera series>
3-aminopyridine-like

> <PDB_code>
Mpro-x12659

> <Approach>
DGM_exploratory_RL

> <ID>
20210628_984

> <SimilarityPheSA_2>
0.787

> <OPTIBRIUM.logD>
3.14459

> <OPTIBRIUM.BBB category>
+

> <OPTIBRIUM.logP>
3.14459

> <OPTIBRIUM.P-gp category>
no

> <OPTIBRIUM.logS>
1.35823

> <OPTIBRIUM.HIA category>
+

> <OPTIBRIUM.PPB90 category>
high

> <OPTIBRIUM.2D6 affinity category>
medium

> <OPTIBRIUM.hERG pIC50>
4.87673

> <OPTIBRIUM.2C9 pKi>
5.2414

> <OPTIBRIUM.BBB log([brain]:[blood])>
0.0528115

> <OPTIBRIUM.logS @ pH7.4>
1.35823

$$$$
Compound 1566_1_1
haSeeSAR  07122114523D 1   1.00000     0.00000     0
SeeSAR 11.0.2 hazemaj
 51 54  0  0  0  0            999 V2000
   20.4557   -7.0049    3.6991 Cl  0  0  0  0  0  0  0  0  0  0  0  0
   20.9528   -8.6248    4.2457 C   0  0  0  0  0  0  0  0  0  0  0  0
   22.2837   -8.8736    4.5635 C   0  0  0  0  0  0  0  0  0  0  0  0
   20.0004   -9.6318    4.3523 C   0  0  0  0  0  0  0  0  0  0  0  0
   23.4836   -7.5672    4.4175 Cl  0  0  0  0  0  0  0  0  0  0  0  0
   22.6827  -10.1354    4.9932 C   0  0  0  0  0  0  0  0  0  0  0  0
   20.4048  -10.8908    4.7817 C   0  0  0  0  0  0  0  0  0  0  0  0
   21.7340  -11.1468    5.1006 C   0  0  0  0  0  0  0  0  0  0  0  0
   19.3771  -12.0034    4.9046 C   0  0  0  0  0  0  0  0  0  0  0  0
   19.1653  -12.6218    3.5893 N   0  3  1  0  0  0  0  0  0  0  0  0
   18.4212  -13.9026    3.6598 C   0  0  0  0  0  0  0  0  0  0  0  0
   18.6702  -11.6638    2.5861 C   0  0  0  0  0  0  0  0  0  0  0  0
   17.0853  -13.8831    4.4063 C   0  0  0  0  0  0  0  0  0  0  0  0
   17.1517  -11.5928    2.5008 C   0  0  0  0  0  0  0  0  0  0  0  0
   16.5410  -12.5340    4.6628 N   0  0  0  0  0  0  0  0  0  0  0  0
   16.5403  -11.4250    3.8858 C   0  0  0  0  0  0  0  0  0  0  0  0
   15.9165  -12.1371    5.8034 C   0  0  0  0  0  0  0  0  0  0  0  0
   16.0052  -10.4082    4.5504 N   0  0  0  0  0  0  0  0  0  0  0  0
   15.6129  -10.8652    5.7229 N   0  0  0  0  0  0  0  0  0  0  0  0
   15.6286  -13.0492    6.9823 C   0  0  0  0  0  0  0  0  0  0  0  0
   14.2066  -12.9422    7.3500 N   0  3  0  0  0  0  0  0  0  0  0  0
   13.9936  -11.5917    7.8956 C   0  0  0  0  0  0  0  0  0  0  0  0
   13.3322  -13.1480    6.1857 C   0  0  0  0  0  0  0  0  0  0  0  0
   12.5642  -11.1314    7.6673 C   0  0  0  0  0  0  0  0  0  0  0  0
   13.0532  -11.8420    5.4551 C   0  0  0  0  0  0  0  0  0  0  0  0
   12.3168  -10.9445    6.2769 O   0  0  0  0  0  0  0  0  0  0  0  0
   19.0430   -9.4541    4.1246 H   0  0  0  0  0  0  0  0  0  0  0  0
   23.6398  -10.3128    5.2220 H   0  0  0  0  0  0  0  0  0  0  0  0
   22.0079  -12.0584    5.4071 H   0  0  0  0  0  0  0  0  0  0  0  0
   18.5137  -11.6244    5.2378 H   0  0  0  0  0  0  0  0  0  0  0  0
   19.7084  -12.6936    5.5481 H   0  0  0  0  0  0  0  0  0  0  0  0
   19.0112  -14.5711    4.1125 H   0  0  0  0  0  0  0  0  0  0  0  0
   18.2397  -14.1993    2.7221 H   0  0  0  0  0  0  0  0  0  0  0  0
   19.0240  -11.9340    1.6906 H   0  0  0  0  0  0  0  0  0  0  0  0
   19.0157  -10.7550    2.8205 H   0  0  0  0  0  0  0  0  0  0  0  0
   17.2137  -14.3397    5.2866 H   0  0  0  0  0  0  0  0  0  0  0  0
   16.4170  -14.3902    3.8621 H   0  0  0  0  0  0  0  0  0  0  0  0
   16.8065  -12.4365    2.0899 H   0  0  0  0  0  0  0  0  0  0  0  0
   16.8913  -10.8135    1.9308 H   0  0  0  0  0  0  0  0  0  0  0  0
   16.1953  -12.7775    7.7602 H   0  0  0  0  0  0  0  0  0  0  0  0
   15.8378  -13.9943    6.7315 H   0  0  0  0  0  0  0  0  0  0  0  0
   14.6183  -10.9544    7.4444 H   0  0  0  0  0  0  0  0  0  0  0  0
   14.1807  -11.6025    8.8779 H   0  0  0  0  0  0  0  0  0  0  0  0
   12.4651  -13.5377    6.4962 H   0  0  0  0  0  0  0  0  0  0  0  0
   13.7766  -13.7842    5.5548 H   0  0  0  0  0  0  0  0  0  0  0  0
   12.4161  -10.2667    8.1471 H   0  0  0  0  0  0  0  0  0  0  0  0
   11.9351  -11.8223    8.0236 H   0  0  0  0  0  0  0  0  0  0  0  0
   12.5251  -12.0363    4.6284 H   0  0  0  0  0  0  0  0  0  0  0  0
   13.9223  -11.4162    5.2031 H   0  0  0  0  0  0  0  0  0  0  0  0
   20.0803  -12.8737    3.2740 H   0  0  0  0  0  0  0  0  0  0  0  0
   13.9923  -13.6220    8.0514 H   0  0  0  0  0  0  0  0  0  0  0  0
  1  2  1  0  0  0  0
  2  3  2  0  0  0  0
  2  4  1  0  0  0  0
  3  5  1  0  0  0  0
  3  6  1  0  0  0  0
  4  7  2  0  0  0  0
  6  8  2  0  0  0  0
  7  9  1  0  0  0  0
  9 10  1  0  0  0  0
 10 11  1  0  0  0  0
 10 12  1  0  0  0  0
 11 13  1  0  0  0  0
 12 14  1  0  0  0  0
 13 15  1  0  0  0  0
 14 16  1  0  0  0  0
 15 17  1  0  0  0  0
 16 18  2  0  0  0  0
 17 19  2  0  0  0  0
 17 20  1  0  0  0  0
 20 21  1  0  0  0  0
 21 22  1  0  0  0  0
 21 23  1  0  0  0  0
 22 24  1  0  0  0  0
 23 25  1  0  0  0  0
 24 26  1  0  0  0  0
  7  8  1  0  0  0  0
 15 16  1  0  0  0  0
 18 19  1  0  0  0  0
 25 26  1  0  0  0  0
  4 27  1  0  0  0  0
  6 28  1  0  0  0  0
  8 29  1  0  0  0  0
  9 30  1  0  0  0  0
  9 31  1  0  0  0  0
 11 32  1  0  0  0  0
 11 33  1  0  0  0  0
 12 34  1  0  0  0  0
 12 35  1  0  0  0  0
 13 36  1  0  0  0  0
 13 37  1  0  0  0  0
 14 38  1  0  0  0  0
 14 39  1  0  0  0  0
 20 40  1  0  0  0  0
 20 41  1  0  0  0  0
 22 42  1  0  0  0  0
 22 43  1  0  0  0  0
 23 44  1  0  0  0  0
 23 45  1  0  0  0  0
 24 46  1  0  0  0  0
 24 47  1  0  0  0  0
 25 48  1  0  0  0  0
 25 49  1  0  0  0  0
 10 50  1  0  0  0  0
 21 51  1  0  0  0  0
M  CHG  2  10   1  21   1
M  END
> <BIOSOLVEIT.HYDE_ESTIMATED_AFFINITY_LOWER_BOUNDARY [nM]>
18108144602.219727

> <BIOSOLVEIT.HYDE_ESTIMATED_AFFINITY_UPPER_BOUNDARY [nM]>
1799151230054.575195

> <BIOSOLVEIT.HYDE_LIGAND_EFFICIENCY range: ++, +, 0, -, -->
--

> <BIOSOLVEIT.HYDE_LIGAND_LIPOPHILIC_EFFICIENCY range: ++, +, 0, -, -->
--

> <BIOSOLVEIT.INTER_CLASH range: red, yellow, green>
green

> <BIOSOLVEIT.INTRA_CLASH range: red, yellow, green>
red

> <BIOSOLVEIT.LOGP>
-0.3588

> <BIOSOLVEIT.MOLECULAR WEIGHT>
398.336

> <BIOSOLVEIT.MOLECULE_CHECKSUM>
MTIuODg7MA==

> <BIOSOLVEIT.TORSION_QUALITY range: red, yellow, green, not rotatable>
green

> <BIOSOLVEIT.TPSA>
48.82

> <BIOSOLVEIT.SEESAR_FAVORITE>
favorite

> <smc_score>
0.625

> <QED_score>
0.795

> <distance>
0.75

> <SimilarityPheSA_1>
0.631

> <Smiles>
Clc1ccc(CN2CCc3nnc(CN4CCOCC4)n3CC2)cc1Cl

> <Similarity_SkelSpheres>
0.598

> <Cluster No>
379.0

> <QueryID>
MAT-POS-bb423b95-1

> <SimilarityPheSA>
0.6306

> <Postera series>
3-aminopyridine-like

> <PDB_code>
Mpro-x11542

> <Approach>
DGM_exploratory_RL

> <ID>
20210628_836

> <SimilarityPheSA_2>
0.65

> <OPTIBRIUM.logD>
1.69346

> <OPTIBRIUM.BBB category>
-

> <OPTIBRIUM.logP>
1.96263

> <OPTIBRIUM.P-gp category>
yes

> <OPTIBRIUM.logS>
3.90345

> <OPTIBRIUM.HIA category>
+

> <OPTIBRIUM.PPB90 category>
high

> <OPTIBRIUM.2D6 affinity category>
medium

> <OPTIBRIUM.hERG pIC50>
6.04518

> <OPTIBRIUM.2C9 pKi>
4.67226

> <OPTIBRIUM.BBB log([brain]:[blood])>
0.0555612

> <OPTIBRIUM.logS @ pH7.4>
2.50654

$$$$
Compound 1716_1_03
haSeeSAR  07122114523D 1   1.00000     0.00000     0
SeeSAR 11.0.2 hazemaj
 37 39  0  0  0  0            999 V2000
   19.4295  -14.0500    8.9248 Cl  0  0  0  0  0  0  0  0  0  0  0  0
   19.8570  -13.2001    7.4206 C   0  0  0  0  0  0  0  0  0  0  0  0
   21.1916  -13.0607    7.0586 C   0  0  0  0  0  0  0  0  0  0  0  0
   18.8590  -12.6739    6.6138 C   0  0  0  0  0  0  0  0  0  0  0  0
   22.4694  -13.7433    8.0919 Cl  0  0  0  0  0  0  0  0  0  0  0  0
   21.5444  -12.3877    5.8976 C   0  0  0  0  0  0  0  0  0  0  0  0
   19.2403  -12.0070    5.4581 C   0  0  0  0  0  0  0  0  0  0  0  0
   20.5588  -11.8396    5.0986 C   0  0  0  0  0  0  0  0  0  0  0  0
   18.3698  -11.3536    4.4041 C   0  0  2  0  0  0  0  0  0  0  0  0
   20.6314  -11.0366    3.8183 C   0  0  0  0  0  0  0  0  0  0  0  0
   17.1526  -12.1301    4.1324 N   0  0  0  0  0  0  0  0  0  0  0  0
   19.2806  -11.2981    3.1949 C   0  0  0  0  0  0  0  0  0  0  0  0
   15.9224  -11.5944    4.4088 C   0  0  0  0  0  0  0  0  0  0  0  0
   15.8390  -10.4910    4.8729 O   0  0  0  0  0  0  0  0  0  0  0  0
   14.7873  -12.3186    4.1554 N   0  0  0  0  0  0  0  0  0  0  0  0
   13.4673  -11.7438    4.4521 C   0  0  0  0  0  0  0  0  0  0  0  0
   13.3279  -11.5424    5.9521 C   0  0  0  0  0  0  0  0  0  0  0  0
   12.7358  -10.4484    6.4548 N   0  0  0  0  0  0  0  0  0  0  0  0
   13.8328  -12.5224    6.7996 C   0  0  0  0  0  0  0  0  0  0  0  0
   12.6097  -10.2627    7.7769 C   0  0  0  0  0  0  0  0  0  0  0  0
   14.4253  -13.6164    6.3269 F   0  0  0  0  0  0  0  0  0  0  0  0
   13.7121  -12.3463    8.1734 C   0  0  0  0  0  0  0  0  0  0  0  0
   13.0939  -11.2064    8.6759 C   0  0  0  0  0  0  0  0  0  0  0  0
   17.8942  -12.7720    6.8575 H   0  0  0  0  0  0  0  0  0  0  0  0
   22.5068  -12.2997    5.6403 H   0  0  0  0  0  0  0  0  0  0  0  0
   18.1260  -10.4269    4.6900 H   0  0  0  0  0  0  0  0  0  0  0  0
   21.3710  -11.3616    3.2289 H   0  0  0  0  0  0  0  0  0  0  0  0
   20.7600  -10.0633    4.0085 H   0  0  0  0  0  0  0  0  0  0  0  0
   17.2222  -13.0496    3.7456 H   0  0  0  0  0  0  0  0  0  0  0  0
   19.0175  -10.5567    2.5774 H   0  0  0  0  0  0  0  0  0  0  0  0
   19.2738  -12.1651    2.6966 H   0  0  0  0  0  0  0  0  0  0  0  0
   14.8569  -13.2382    3.7687 H   0  0  0  0  0  0  0  0  0  0  0  0
   12.7532  -12.3660    4.1314 H   0  0  0  0  0  0  0  0  0  0  0  0
   13.3752  -10.8631    3.9875 H   0  0  0  0  0  0  0  0  0  0  0  0
   12.1627   -9.4367    8.1199 H   0  0  0  0  0  0  0  0  0  0  0  0
   14.0695  -13.0390    8.7999 H   0  0  0  0  0  0  0  0  0  0  0  0
   12.9996  -11.0685    9.6618 H   0  0  0  0  0  0  0  0  0  0  0  0
  1  2  1  0  0  0  0
  2  3  2  0  0  0  0
  2  4  1  0  0  0  0
  3  5  1  0  0  0  0
  3  6  1  0  0  0  0
  4  7  2  0  0  0  0
  6  8  2  0  0  0  0
  7  9  1  0  0  0  0
  8 10  1  0  0  0  0
  9 11  1  0  0  0  0
  9 12  1  0  0  0  0
 11 13  1  0  0  0  0
 13 14  2  0  0  0  0
 13 15  1  0  0  0  0
 15 16  1  0  0  0  0
 16 17  1  0  0  0  0
 17 18  2  0  0  0  0
 17 19  1  0  0  0  0
 18 20  1  0  0  0  0
 19 21  1  0  0  0  0
 19 22  2  0  0  0  0
 20 23  2  0  0  0  0
  7  8  1  0  0  0  0
 10 12  1  0  0  0  0
 22 23  1  0  0  0  0
  4 24  1  0  0  0  0
  6 25  1  0  0  0  0
  9 26  1  0  0  0  0
 10 27  1  0  0  0  0
 10 28  1  0  0  0  0
 11 29  1  0  0  0  0
 12 30  1  0  0  0  0
 12 31  1  0  0  0  0
 15 32  1  0  0  0  0
 16 33  1  0  0  0  0
 16 34  1  0  0  0  0
 20 35  1  0  0  0  0
 22 36  1  0  0  0  0
 23 37  1  0  0  0  0
M  END
> <BIOSOLVEIT.HYDE_ESTIMATED_AFFINITY_LOWER_BOUNDARY [nM]>
1870676.260197

> <BIOSOLVEIT.HYDE_ESTIMATED_AFFINITY_UPPER_BOUNDARY [nM]>
185862746.763979

> <BIOSOLVEIT.HYDE_LIGAND_EFFICIENCY range: ++, +, 0, -, -->
--

> <BIOSOLVEIT.HYDE_LIGAND_LIPOPHILIC_EFFICIENCY range: ++, +, 0, -, -->
--

> <BIOSOLVEIT.INTER_CLASH range: red, yellow, green>
green

> <BIOSOLVEIT.INTRA_CLASH range: red, yellow, green>
red

> <BIOSOLVEIT.LOGP>
4.0142

> <BIOSOLVEIT.MOLECULAR WEIGHT>
354.211

> <BIOSOLVEIT.MOLECULE_CHECKSUM>
LTkuODcxNDY7MC40MjkxOTQ=

> <BIOSOLVEIT.TORSION_QUALITY range: red, yellow, green, not rotatable>
green

> <BIOSOLVEIT.TPSA>
54.02

> <BIOSOLVEIT.SEESAR_FAVORITE>
favorite

> <smc_score>
0.625

> <QED_score>
0.875

> <distance>
0.738

> <SimilarityPheSA_1>
0.645

> <Smiles>
O=C(NCc1ncccc1F)NC1CCc2cc(Cl)c(Cl)cc21

> <Similarity_SkelSpheres>
0.63

> <Cluster No>
476.0

> <QueryID>
JAG-UCB-a3ef7265-20

> <SimilarityPheSA>
0.6445

> <Postera series>
3-aminopyridine-like

> <PDB_code>
Mpro-x10324

> <Approach>
DGM_exploratory_RL

> <ID>
20210628_986

> <SimilarityPheSA_2>
0.749

> <OPTIBRIUM.logD>
3.28741

> <OPTIBRIUM.BBB category>
+

> <OPTIBRIUM.logP>
3.28741

> <OPTIBRIUM.P-gp category>
no

> <OPTIBRIUM.logS>
0.875769

> <OPTIBRIUM.HIA category>
+

> <OPTIBRIUM.PPB90 category>
high

> <OPTIBRIUM.2D6 affinity category>
high

> <OPTIBRIUM.hERG pIC50>
4.8143

> <OPTIBRIUM.2C9 pKi>
5.32421

> <OPTIBRIUM.BBB log([brain]:[blood])>
-0.403782

> <OPTIBRIUM.logS @ pH7.4>
0.875769

$$$$
Compound 1716_1_04
haSeeSAR  07122114523D 1   1.00000     0.00000     0
SeeSAR 11.0.2 hazemaj
 37 39  0  0  0  0            999 V2000
   17.8506  -11.6136    9.7021 Cl  0  0  0  0  0  0  0  0  0  0  0  0
   18.7611  -11.5961    8.1729 C   0  0  0  0  0  0  0  0  0  0  0  0
   20.1482  -11.6815    8.1911 C   0  0  0  0  0  0  0  0  0  0  0  0
   18.0866  -11.4927    6.9653 C   0  0  0  0  0  0  0  0  0  0  0  0
   21.0104  -11.8215    9.7413 Cl  0  0  0  0  0  0  0  0  0  0  0  0
   20.8756  -11.6536    7.0097 C   0  0  0  0  0  0  0  0  0  0  0  0
   18.8388  -11.4684    5.7995 C   0  0  0  0  0  0  0  0  0  0  0  0
   20.2143  -11.5275    5.8025 C   0  0  0  0  0  0  0  0  0  0  0  0
   18.3666  -11.3746    4.3628 C   0  0  2  0  0  0  0  0  0  0  0  0
   20.7235  -11.4351    4.3807 C   0  0  0  0  0  0  0  0  0  0  0  0
   17.1435  -12.1543    4.1302 N   0  0  0  0  0  0  0  0  0  0  0  0
   19.5404  -11.9268    3.5804 C   0  0  0  0  0  0  0  0  0  0  0  0
   15.9185  -11.6046    4.4028 C   0  0  0  0  0  0  0  0  0  0  0  0
   15.8448  -10.4862    4.8314 O   0  0  0  0  0  0  0  0  0  0  0  0
   14.7779  -12.3318    4.1859 N   0  0  0  0  0  0  0  0  0  0  0  0
   13.4635  -11.7420    4.4783 C   0  0  0  0  0  0  0  0  0  0  0  0
   13.3245  -11.5321    5.9773 C   0  0  0  0  0  0  0  0  0  0  0  0
   12.7260  -10.4389    6.4738 N   0  0  0  0  0  0  0  0  0  0  0  0
   13.8369  -12.5036    6.8302 C   0  0  0  0  0  0  0  0  0  0  0  0
   12.6003  -10.2458    7.7948 C   0  0  0  0  0  0  0  0  0  0  0  0
   14.4358  -13.5967    6.3636 F   0  0  0  0  0  0  0  0  0  0  0  0
   13.7165  -12.3197    8.2031 C   0  0  0  0  0  0  0  0  0  0  0  0
   13.0915  -11.1806    8.6992 C   0  0  0  0  0  0  0  0  0  0  0  0
   17.0885  -11.4371    6.9358 H   0  0  0  0  0  0  0  0  0  0  0  0
   21.8729  -11.7245    7.0316 H   0  0  0  0  0  0  0  0  0  0  0  0
   18.2128  -10.4177    4.1165 H   0  0  0  0  0  0  0  0  0  0  0  0
   21.5219  -12.0213    4.2435 H   0  0  0  0  0  0  0  0  0  0  0  0
   20.9565  -10.4928    4.1404 H   0  0  0  0  0  0  0  0  0  0  0  0
   17.2050  -13.0862    3.7730 H   0  0  0  0  0  0  0  0  0  0  0  0
   19.5575  -11.5633    2.6490 H   0  0  0  0  0  0  0  0  0  0  0  0
   19.5157  -12.9259    3.5480 H   0  0  0  0  0  0  0  0  0  0  0  0
   14.8394  -13.2637    3.8286 H   0  0  0  0  0  0  0  0  0  0  0  0
   12.7433  -12.3583    4.1599 H   0  0  0  0  0  0  0  0  0  0  0  0
   13.3811  -10.8625    4.0096 H   0  0  0  0  0  0  0  0  0  0  0  0
   12.1483   -9.4205    8.1333 H   0  0  0  0  0  0  0  0  0  0  0  0
   14.0791  -13.0061    8.8334 H   0  0  0  0  0  0  0  0  0  0  0  0
   12.9975  -11.0372    9.6843 H   0  0  0  0  0  0  0  0  0  0  0  0
  1  2  1  0  0  0  0
  2  3  2  0  0  0  0
  2  4  1  0  0  0  0
  3  5  1  0  0  0  0
  3  6  1  0  0  0  0
  4  7  2  0  0  0  0
  6  8  2  0  0  0  0
  7  9  1  0  0  0  0
  8 10  1  0  0  0  0
  9 11  1  0  0  0  0
  9 12  1  0  0  0  0
 11 13  1  0  0  0  0
 13 14  2  0  0  0  0
 13 15  1  0  0  0  0
 15 16  1  0  0  0  0
 16 17  1  0  0  0  0
 17 18  2  0  0  0  0
 17 19  1  0  0  0  0
 18 20  1  0  0  0  0
 19 21  1  0  0  0  0
 19 22  2  0  0  0  0
 20 23  2  0  0  0  0
  7  8  1  0  0  0  0
 10 12  1  0  0  0  0
 22 23  1  0  0  0  0
  4 24  1  0  0  0  0
  6 25  1  0  0  0  0
  9 26  1  0  0  0  0
 10 27  1  0  0  0  0
 10 28  1  0  0  0  0
 11 29  1  0  0  0  0
 12 30  1  0  0  0  0
 12 31  1  0  0  0  0
 15 32  1  0  0  0  0
 16 33  1  0  0  0  0
 16 34  1  0  0  0  0
 20 35  1  0  0  0  0
 22 36  1  0  0  0  0
 23 37  1  0  0  0  0
M  END
> <BIOSOLVEIT.HYDE_ESTIMATED_AFFINITY_LOWER_BOUNDARY [nM]>
747761.682414

> <BIOSOLVEIT.HYDE_ESTIMATED_AFFINITY_UPPER_BOUNDARY [nM]>
74294544.264745

> <BIOSOLVEIT.HYDE_LIGAND_EFFICIENCY range: ++, +, 0, -, -->
--

> <BIOSOLVEIT.HYDE_LIGAND_LIPOPHILIC_EFFICIENCY range: ++, +, 0, -, -->
--

> <BIOSOLVEIT.INTER_CLASH range: red, yellow, green>
green

> <BIOSOLVEIT.INTRA_CLASH range: red, yellow, green>
red

> <BIOSOLVEIT.LOGP>
4.0142

> <BIOSOLVEIT.MOLECULAR WEIGHT>
354.211

> <BIOSOLVEIT.MOLECULE_CHECKSUM>
LTEyLjE0NDY7MC41MjgwMjY=

> <BIOSOLVEIT.TORSION_QUALITY range: red, yellow, green, not rotatable>
green

> <BIOSOLVEIT.TPSA>
54.02

> <BIOSOLVEIT.SEESAR_FAVORITE>
favorite

> <smc_score>
0.625

> <QED_score>
0.875

> <distance>
0.738

> <SimilarityPheSA_1>
0.645

> <Smiles>
O=C(NCc1ncccc1F)NC1CCc2cc(Cl)c(Cl)cc21

> <Similarity_SkelSpheres>
0.63

> <Cluster No>
476.0

> <QueryID>
JAG-UCB-a3ef7265-20

> <SimilarityPheSA>
0.6445

> <Postera series>
3-aminopyridine-like

> <PDB_code>
Mpro-x10324

> <Approach>
DGM_exploratory_RL

> <ID>
20210628_986

> <SimilarityPheSA_2>
0.749

> <OPTIBRIUM.logD>
3.28741

> <OPTIBRIUM.BBB category>
+

> <OPTIBRIUM.logP>
3.28741

> <OPTIBRIUM.P-gp category>
no

> <OPTIBRIUM.logS>
0.875769

> <OPTIBRIUM.HIA category>
+

> <OPTIBRIUM.PPB90 category>
high

> <OPTIBRIUM.2D6 affinity category>
high

> <OPTIBRIUM.hERG pIC50>
4.8143

> <OPTIBRIUM.2C9 pKi>
5.32421

> <OPTIBRIUM.BBB log([brain]:[blood])>
-0.403782

> <OPTIBRIUM.logS @ pH7.4>
0.875769

$$$$
Compound 1716_1_07
haSeeSAR  07122114523D 1   1.00000     0.00000     0
SeeSAR 11.0.2 hazemaj
 37 39  0  0  0  0            999 V2000
   19.2936  -13.5605    9.3109 Cl  0  0  0  0  0  0  0  0  0  0  0  0
   19.8185  -12.8470    7.7672 C   0  0  0  0  0  0  0  0  0  0  0  0
   21.1739  -12.7328    7.4816 C   0  0  0  0  0  0  0  0  0  0  0  0
   18.8753  -12.4015    6.8530 C   0  0  0  0  0  0  0  0  0  0  0  0
   22.3815  -13.3119    8.6532 Cl  0  0  0  0  0  0  0  0  0  0  0  0
   21.6018  -12.1649    6.2900 C   0  0  0  0  0  0  0  0  0  0  0  0
   19.3311  -11.8392    5.6690 C   0  0  0  0  0  0  0  0  0  0  0  0
   20.6703  -11.6969    5.3824 C   0  0  0  0  0  0  0  0  0  0  0  0
   18.5314  -11.2885    4.5059 C   0  0  2  0  0  0  0  0  0  0  0  0
   20.8264  -11.0121    4.0424 C   0  0  0  0  0  0  0  0  0  0  0  0
   17.3346  -12.0935    4.2268 N   0  0  0  0  0  0  0  0  0  0  0  0
   19.5193  -11.3367    3.3585 C   0  0  0  0  0  0  0  0  0  0  0  0
   16.0891  -11.5720    4.4577 C   0  0  0  0  0  0  0  0  0  0  0  0
   15.9756  -10.4576    4.8878 O   0  0  0  0  0  0  0  0  0  0  0  0
   14.9731  -12.3228    4.1974 N   0  0  0  0  0  0  0  0  0  0  0  0
   13.6365  -11.7631    4.4451 C   0  0  0  0  0  0  0  0  0  0  0  0
   13.4413  -11.5599    5.9379 C   0  0  0  0  0  0  0  0  0  0  0  0
   12.8268  -10.4691    6.4188 N   0  0  0  0  0  0  0  0  0  0  0  0
   13.9148  -12.5333    6.8112 C   0  0  0  0  0  0  0  0  0  0  0  0
   12.6511  -10.2846    7.7361 C   0  0  0  0  0  0  0  0  0  0  0  0
   14.5284  -13.6247    6.3626 F   0  0  0  0  0  0  0  0  0  0  0  0
   13.7463  -12.3659    8.1816 C   0  0  0  0  0  0  0  0  0  0  0  0
   13.1051  -11.2256    8.6543 C   0  0  0  0  0  0  0  0  0  0  0  0
   17.8965  -12.4831    7.0412 H   0  0  0  0  0  0  0  0  0  0  0  0
   22.5789  -12.0947    6.0890 H   0  0  0  0  0  0  0  0  0  0  0  0
   18.2694  -10.3413    4.6905 H   0  0  0  0  0  0  0  0  0  0  0  0
   21.6030  -11.3844    3.5340 H   0  0  0  0  0  0  0  0  0  0  0  0
   20.9422  -10.0248    4.1518 H   0  0  0  0  0  0  0  0  0  0  0  0
   17.4293  -13.0223    3.8683 H   0  0  0  0  0  0  0  0  0  0  0  0
   19.2970  -10.6555    2.6609 H   0  0  0  0  0  0  0  0  0  0  0  0
   19.5450  -12.2451    2.9411 H   0  0  0  0  0  0  0  0  0  0  0  0
   15.0677  -13.2515    3.8388 H   0  0  0  0  0  0  0  0  0  0  0  0
   12.9417  -12.3946    4.1009 H   0  0  0  0  0  0  0  0  0  0  0  0
   13.5506  -10.8846    3.9750 H   0  0  0  0  0  0  0  0  0  0  0  0
   12.1880   -9.4603    8.0618 H   0  0  0  0  0  0  0  0  0  0  0  0
   14.0825  -13.0579    8.8203 H   0  0  0  0  0  0  0  0  0  0  0  0
   12.9730  -11.0850    9.6355 H   0  0  0  0  0  0  0  0  0  0  0  0
  1  2  1  0  0  0  0
  2  3  2  0  0  0  0
  2  4  1  0  0  0  0
  3  5  1  0  0  0  0
  3  6  1  0  0  0  0
  4  7  2  0  0  0  0
  6  8  2  0  0  0  0
  7  9  1  0  0  0  0
  8 10  1  0  0  0  0
  9 11  1  0  0  0  0
  9 12  1  0  0  0  0
 11 13  1  0  0  0  0
 13 14  2  0  0  0  0
 13 15  1  0  0  0  0
 15 16  1  0  0  0  0
 16 17  1  0  0  0  0
 17 18  2  0  0  0  0
 17 19  1  0  0  0  0
 18 20  1  0  0  0  0
 19 21  1  0  0  0  0
 19 22  2  0  0  0  0
 20 23  2  0  0  0  0
  7  8  1  0  0  0  0
 10 12  1  0  0  0  0
 22 23  1  0  0  0  0
  4 24  1  0  0  0  0
  6 25  1  0  0  0  0
  9 26  1  0  0  0  0
 10 27  1  0  0  0  0
 10 28  1  0  0  0  0
 11 29  1  0  0  0  0
 12 30  1  0  0  0  0
 12 31  1  0  0  0  0
 15 32  1  0  0  0  0
 16 33  1  0  0  0  0
 16 34  1  0  0  0  0
 20 35  1  0  0  0  0
 22 36  1  0  0  0  0
 23 37  1  0  0  0  0
M  END
> <BIOSOLVEIT.HYDE_ESTIMATED_AFFINITY_LOWER_BOUNDARY [nM]>
7612123.685525

> <BIOSOLVEIT.HYDE_ESTIMATED_AFFINITY_UPPER_BOUNDARY [nM]>
756309494.593963

> <BIOSOLVEIT.HYDE_LIGAND_EFFICIENCY range: ++, +, 0, -, -->
--

> <BIOSOLVEIT.HYDE_LIGAND_LIPOPHILIC_EFFICIENCY range: ++, +, 0, -, -->
--

> <BIOSOLVEIT.INTER_CLASH range: red, yellow, green>
green

> <BIOSOLVEIT.INTRA_CLASH range: red, yellow, green>
red

> <BIOSOLVEIT.LOGP>
4.0142

> <BIOSOLVEIT.MOLECULAR WEIGHT>
354.211

> <BIOSOLVEIT.MOLECULE_CHECKSUM>
LTYuMzkyMzg7MC4yNzc5Mw==

> <BIOSOLVEIT.TORSION_QUALITY range: red, yellow, green, not rotatable>
green

> <BIOSOLVEIT.TPSA>
54.02

> <BIOSOLVEIT.SEESAR_FAVORITE>
favorite

> <smc_score>
0.625

> <QED_score>
0.875

> <distance>
0.738

> <SimilarityPheSA_1>
0.645

> <Smiles>
O=C(NCc1ncccc1F)NC1CCc2cc(Cl)c(Cl)cc21

> <Similarity_SkelSpheres>
0.63

> <Cluster No>
476.0

> <QueryID>
JAG-UCB-a3ef7265-20

> <SimilarityPheSA>
0.6445

> <Postera series>
3-aminopyridine-like

> <PDB_code>
Mpro-x10324

> <Approach>
DGM_exploratory_RL

> <ID>
20210628_986

> <SimilarityPheSA_2>
0.749

> <OPTIBRIUM.logD>
3.28741

> <OPTIBRIUM.BBB category>
+

> <OPTIBRIUM.logP>
3.28741

> <OPTIBRIUM.P-gp category>
no

> <OPTIBRIUM.logS>
0.875769

> <OPTIBRIUM.HIA category>
+

> <OPTIBRIUM.PPB90 category>
high

> <OPTIBRIUM.2D6 affinity category>
high

> <OPTIBRIUM.hERG pIC50>
4.8143

> <OPTIBRIUM.2C9 pKi>
5.32421

> <OPTIBRIUM.BBB log([brain]:[blood])>
-0.403782

> <OPTIBRIUM.logS @ pH7.4>
0.875769

$$$$
Compound 1716_1_09
haSeeSAR  07122114523D 1   1.00000     0.00000     0
SeeSAR 11.0.2 hazemaj
 37 39  0  0  0  0            999 V2000
   17.8892  -11.6225    9.7521 Cl  0  0  0  0  0  0  0  0  0  0  0  0
   18.8051  -11.5949    8.2262 C   0  0  0  0  0  0  0  0  0  0  0  0
   20.1926  -11.6737    8.2493 C   0  0  0  0  0  0  0  0  0  0  0  0
   18.1345  -11.4901    7.0167 C   0  0  0  0  0  0  0  0  0  0  0  0
   21.0498  -11.8156    9.8021 Cl  0  0  0  0  0  0  0  0  0  0  0  0
   20.9241  -11.6380    7.0707 C   0  0  0  0  0  0  0  0  0  0  0  0
   18.8909  -11.4580    5.8537 C   0  0  0  0  0  0  0  0  0  0  0  0
   20.2667  -11.5106    5.8615 C   0  0  0  0  0  0  0  0  0  0  0  0
   18.4235  -11.3609    4.4156 C   0  0  2  0  0  0  0  0  0  0  0  0
   20.7805  -11.4103    4.4420 C   0  0  0  0  0  0  0  0  0  0  0  0
   17.2049  -12.1455    4.1758 N   0  0  0  0  0  0  0  0  0  0  0  0
   19.6028  -11.9045    3.6356 C   0  0  0  0  0  0  0  0  0  0  0  0
   15.9757  -11.5969    4.4304 C   0  0  0  0  0  0  0  0  0  0  0  0
   15.8944  -10.4754    4.8495 O   0  0  0  0  0  0  0  0  0  0  0  0
   14.8393  -12.3286    4.2067 N   0  0  0  0  0  0  0  0  0  0  0  0
   13.5203  -11.7399    4.4799 C   0  0  0  0  0  0  0  0  0  0  0  0
   13.3599  -11.5293    5.9758 C   0  0  0  0  0  0  0  0  0  0  0  0
   12.7463  -10.4416    6.4651 N   0  0  0  0  0  0  0  0  0  0  0  0
   13.8648  -12.4922    6.8431 C   0  0  0  0  0  0  0  0  0  0  0  0
   12.6013  -10.2506    7.7852 C   0  0  0  0  0  0  0  0  0  0  0  0
   14.4783  -13.5802    6.3862 F   0  0  0  0  0  0  0  0  0  0  0  0
   13.7284  -12.3178    8.2161 C   0  0  0  0  0  0  0  0  0  0  0  0
   13.0874  -11.1811    8.6976 C   0  0  0  0  0  0  0  0  0  0  0  0
   17.1364  -11.4392    6.9837 H   0  0  0  0  0  0  0  0  0  0  0  0
   21.9216  -11.7041    7.0960 H   0  0  0  0  0  0  0  0  0  0  0  0
   18.2660  -10.4038    4.1724 H   0  0  0  0  0  0  0  0  0  0  0  0
   21.5823  -11.9921    4.3055 H   0  0  0  0  0  0  0  0  0  0  0  0
   21.0099  -10.4659    4.2061 H   0  0  0  0  0  0  0  0  0  0  0  0
   17.2727  -13.0801    3.8264 H   0  0  0  0  0  0  0  0  0  0  0  0
   19.6216  -11.5375    2.7055 H   0  0  0  0  0  0  0  0  0  0  0  0
   19.5829  -12.9036    3.5992 H   0  0  0  0  0  0  0  0  0  0  0  0
   14.9071  -13.2632    3.8574 H   0  0  0  0  0  0  0  0  0  0  0  0
   12.8054  -12.3572    4.1516 H   0  0  0  0  0  0  0  0  0  0  0  0
   13.4437  -10.8609    4.0093 H   0  0  0  0  0  0  0  0  0  0  0  0
   12.1379   -9.4290    8.1172 H   0  0  0  0  0  0  0  0  0  0  0  0
   14.0874  -13.0024    8.8506 H   0  0  0  0  0  0  0  0  0  0  0  0
   12.9781  -11.0357    9.6809 H   0  0  0  0  0  0  0  0  0  0  0  0
  1  2  1  0  0  0  0
  2  3  2  0  0  0  0
  2  4  1  0  0  0  0
  3  5  1  0  0  0  0
  3  6  1  0  0  0  0
  4  7  2  0  0  0  0
  6  8  2  0  0  0  0
  7  9  1  0  0  0  0
  8 10  1  0  0  0  0
  9 11  1  0  0  0  0
  9 12  1  0  0  0  0
 11 13  1  0  0  0  0
 13 14  2  0  0  0  0
 13 15  1  0  0  0  0
 15 16  1  0  0  0  0
 16 17  1  0  0  0  0
 17 18  2  0  0  0  0
 17 19  1  0  0  0  0
 18 20  1  0  0  0  0
 19 21  1  0  0  0  0
 19 22  2  0  0  0  0
 20 23  2  0  0  0  0
  7  8  1  0  0  0  0
 10 12  1  0  0  0  0
 22 23  1  0  0  0  0
  4 24  1  0  0  0  0
  6 25  1  0  0  0  0
  9 26  1  0  0  0  0
 10 27  1  0  0  0  0
 10 28  1  0  0  0  0
 11 29  1  0  0  0  0
 12 30  1  0  0  0  0
 12 31  1  0  0  0  0
 15 32  1  0  0  0  0
 16 33  1  0  0  0  0
 16 34  1  0  0  0  0
 20 35  1  0  0  0  0
 22 36  1  0  0  0  0
 23 37  1  0  0  0  0
M  END
> <BIOSOLVEIT.HYDE_ESTIMATED_AFFINITY_LOWER_BOUNDARY [nM]>
897008.761053

> <BIOSOLVEIT.HYDE_ESTIMATED_AFFINITY_UPPER_BOUNDARY [nM]>
89123123.946104

> <BIOSOLVEIT.HYDE_LIGAND_EFFICIENCY range: ++, +, 0, -, -->
--

> <BIOSOLVEIT.HYDE_LIGAND_LIPOPHILIC_EFFICIENCY range: ++, +, 0, -, -->
--

> <BIOSOLVEIT.INTER_CLASH range: red, yellow, green>
green

> <BIOSOLVEIT.INTRA_CLASH range: red, yellow, green>
red

> <BIOSOLVEIT.LOGP>
4.0142

> <BIOSOLVEIT.MOLECULAR WEIGHT>
354.211

> <BIOSOLVEIT.MOLECULE_CHECKSUM>
LTExLjY5MzU7MC41MDg0MTE=

> <BIOSOLVEIT.TORSION_QUALITY range: red, yellow, green, not rotatable>
green

> <BIOSOLVEIT.TPSA>
54.02

> <BIOSOLVEIT.SEESAR_FAVORITE>
favorite

> <smc_score>
0.625

> <QED_score>
0.875

> <distance>
0.738

> <SimilarityPheSA_1>
0.645

> <Smiles>
O=C(NCc1ncccc1F)NC1CCc2cc(Cl)c(Cl)cc21

> <Similarity_SkelSpheres>
0.63

> <Cluster No>
476.0

> <QueryID>
JAG-UCB-a3ef7265-20

> <SimilarityPheSA>
0.6445

> <Postera series>
3-aminopyridine-like

> <PDB_code>
Mpro-x10324

> <Approach>
DGM_exploratory_RL

> <ID>
20210628_986

> <SimilarityPheSA_2>
0.749

> <OPTIBRIUM.logD>
3.28741

> <OPTIBRIUM.BBB category>
+

> <OPTIBRIUM.logP>
3.28741

> <OPTIBRIUM.P-gp category>
no

> <OPTIBRIUM.logS>
0.875769

> <OPTIBRIUM.HIA category>
+

> <OPTIBRIUM.PPB90 category>
high

> <OPTIBRIUM.2D6 affinity category>
high

> <OPTIBRIUM.hERG pIC50>
4.8143

> <OPTIBRIUM.2C9 pKi>
5.32421

> <OPTIBRIUM.BBB log([brain]:[blood])>
-0.403782

> <OPTIBRIUM.logS @ pH7.4>
0.875769

$$$$
Compound 1716_1_10
haSeeSAR  07122114523D 1   1.00000     0.00000     0
SeeSAR 11.0.2 hazemaj
 37 39  0  0  0  0            999 V2000
   18.8246  -11.2156    9.2488 Cl  0  0  0  0  0  0  0  0  0  0  0  0
   19.0937  -11.9778    7.6637 C   0  0  0  0  0  0  0  0  0  0  0  0
   19.9803  -13.0424    7.5626 C   0  0  0  0  0  0  0  0  0  0  0  0
   18.4242  -11.5122    6.5387 C   0  0  0  0  0  0  0  0  0  0  0  0
   20.8800  -13.6288    8.9821 Cl  0  0  0  0  0  0  0  0  0  0  0  0
   20.1852  -13.6831    6.3460 C   0  0  0  0  0  0  0  0  0  0  0  0
   18.6382  -12.1341    5.3148 C   0  0  0  0  0  0  0  0  0  0  0  0
   19.4773  -13.2225    5.2408 C   0  0  0  0  0  0  0  0  0  0  0  0
   18.0666  -11.8081    3.9493 C   0  0  2  0  0  0  0  0  0  0  0  0
   19.4233  -13.7427    3.8226 C   0  0  0  0  0  0  0  0  0  0  0  0
   16.7155  -12.3502    3.7525 N   0  0  0  0  0  0  0  0  0  0  0  0
   19.0670  -12.4947    3.0423 C   0  0  0  0  0  0  0  0  0  0  0  0
   15.6235  -11.6368    4.1712 C   0  0  0  0  0  0  0  0  0  0  0  0
   15.7706  -10.5690    4.6987 O   0  0  0  0  0  0  0  0  0  0  0  0
   14.3635  -12.1423    3.9877 N   0  0  0  0  0  0  0  0  0  0  0  0
   13.1917  -11.3767    4.4370 C   0  0  0  0  0  0  0  0  0  0  0  0
   13.1647  -11.3368    5.9562 C   0  0  0  0  0  0  0  0  0  0  0  0
   12.6771  -10.2748    6.6153 N   0  0  0  0  0  0  0  0  0  0  0  0
   13.6621  -12.4318    6.6544 C   0  0  0  0  0  0  0  0  0  0  0  0
   12.6507  -10.2313    7.9554 C   0  0  0  0  0  0  0  0  0  0  0  0
   14.1521  -13.4971    6.0250 F   0  0  0  0  0  0  0  0  0  0  0  0
   13.6437  -12.4037    8.0443 C   0  0  0  0  0  0  0  0  0  0  0  0
   13.1330  -11.2947    8.7101 C   0  0  0  0  0  0  0  0  0  0  0  0
   17.7950  -10.7381    6.6092 H   0  0  0  0  0  0  0  0  0  0  0  0
   20.8212  -14.4508    6.2679 H   0  0  0  0  0  0  0  0  0  0  0  0
   18.0735  -10.8203    3.7936 H   0  0  0  0  0  0  0  0  0  0  0  0
   18.7214  -14.4477    3.7207 H   0  0  0  0  0  0  0  0  0  0  0  0
   20.3085  -14.1098    3.5364 H   0  0  0  0  0  0  0  0  0  0  0  0
   16.5929  -13.2400    3.3129 H   0  0  0  0  0  0  0  0  0  0  0  0
   19.8722  -11.9205    2.8935 H   0  0  0  0  0  0  0  0  0  0  0  0
   18.6551  -12.7259    2.1609 H   0  0  0  0  0  0  0  0  0  0  0  0
   14.2408  -13.0321    3.5482 H   0  0  0  0  0  0  0  0  0  0  0  0
   12.3582  -11.8148    4.1003 H   0  0  0  0  0  0  0  0  0  0  0  0
   13.2459  -10.4442    4.0800 H   0  0  0  0  0  0  0  0  0  0  0  0
   12.2800   -9.4254    8.4168 H   0  0  0  0  0  0  0  0  0  0  0  0
   13.9976  -13.1807    8.5650 H   0  0  0  0  0  0  0  0  0  0  0  0
   13.1130  -11.2629    9.7094 H   0  0  0  0  0  0  0  0  0  0  0  0
  1  2  1  0  0  0  0
  2  3  2  0  0  0  0
  2  4  1  0  0  0  0
  3  5  1  0  0  0  0
  3  6  1  0  0  0  0
  4  7  2  0  0  0  0
  6  8  2  0  0  0  0
  7  9  1  0  0  0  0
  8 10  1  0  0  0  0
  9 11  1  0  0  0  0
  9 12  1  0  0  0  0
 11 13  1  0  0  0  0
 13 14  2  0  0  0  0
 13 15  1  0  0  0  0
 15 16  1  0  0  0  0
 16 17  1  0  0  0  0
 17 18  2  0  0  0  0
 17 19  1  0  0  0  0
 18 20  1  0  0  0  0
 19 21  1  0  0  0  0
 19 22  2  0  0  0  0
 20 23  2  0  0  0  0
  7  8  1  0  0  0  0
 10 12  1  0  0  0  0
 22 23  1  0  0  0  0
  4 24  1  0  0  0  0
  6 25  1  0  0  0  0
  9 26  1  0  0  0  0
 10 27  1  0  0  0  0
 10 28  1  0  0  0  0
 11 29  1  0  0  0  0
 12 30  1  0  0  0  0
 12 31  1  0  0  0  0
 15 32  1  0  0  0  0
 16 33  1  0  0  0  0
 16 34  1  0  0  0  0
 20 35  1  0  0  0  0
 22 36  1  0  0  0  0
 23 37  1  0  0  0  0
M  END
> <BIOSOLVEIT.HYDE_ESTIMATED_AFFINITY_LOWER_BOUNDARY [nM]>
728419.830523

> <BIOSOLVEIT.HYDE_ESTIMATED_AFFINITY_UPPER_BOUNDARY [nM]>
72372816.921315

> <BIOSOLVEIT.HYDE_LIGAND_EFFICIENCY range: ++, +, 0, -, -->
--

> <BIOSOLVEIT.HYDE_LIGAND_LIPOPHILIC_EFFICIENCY range: ++, +, 0, -, -->
--

> <BIOSOLVEIT.INTER_CLASH range: red, yellow, green>
yellow

> <BIOSOLVEIT.INTRA_CLASH range: red, yellow, green>
red

> <BIOSOLVEIT.LOGP>
4.0142

> <BIOSOLVEIT.MOLECULAR WEIGHT>
354.211

> <BIOSOLVEIT.MOLECULE_CHECKSUM>
LTEyLjIwOTY7MC41MzA4NQ==

> <BIOSOLVEIT.TORSION_QUALITY range: red, yellow, green, not rotatable>
green

> <BIOSOLVEIT.TPSA>
54.02

> <BIOSOLVEIT.SEESAR_FAVORITE>
favorite

> <smc_score>
0.625

> <QED_score>
0.875

> <distance>
0.738

> <SimilarityPheSA_1>
0.645

> <Smiles>
O=C(NCc1ncccc1F)NC1CCc2cc(Cl)c(Cl)cc21

> <Similarity_SkelSpheres>
0.63

> <Cluster No>
476.0

> <QueryID>
JAG-UCB-a3ef7265-20

> <SimilarityPheSA>
0.6445

> <Postera series>
3-aminopyridine-like

> <PDB_code>
Mpro-x10324

> <Approach>
DGM_exploratory_RL

> <ID>
20210628_986

> <SimilarityPheSA_2>
0.749

> <OPTIBRIUM.logD>
3.28741

> <OPTIBRIUM.BBB category>
+

> <OPTIBRIUM.logP>
3.28741

> <OPTIBRIUM.P-gp category>
no

> <OPTIBRIUM.logS>
0.875769

> <OPTIBRIUM.HIA category>
+

> <OPTIBRIUM.PPB90 category>
high

> <OPTIBRIUM.2D6 affinity category>
high

> <OPTIBRIUM.hERG pIC50>
4.8143

> <OPTIBRIUM.2C9 pKi>
5.32421

> <OPTIBRIUM.BBB log([brain]:[blood])>
-0.403782

> <OPTIBRIUM.logS @ pH7.4>
0.875769

$$$$
Compound 1698_1_02
haSeeSAR  07122114523D 1   1.00000     0.00000     0
SeeSAR 11.0.2 hazemaj
 53 56  0  0  0  0            999 V2000
   23.4825  -11.6016    7.0072 Cl  0  0  0  0  0  0  0  0  0  0  0  0
   21.9768  -11.3342    6.0966 C   0  0  0  0  0  0  0  0  0  0  0  0
   20.8787  -12.1569    6.3238 C   0  0  0  0  0  0  0  0  0  0  0  0
   21.9092  -10.3042    5.1644 C   0  0  0  0  0  0  0  0  0  0  0  0
   20.9832  -13.4697    7.5209 Cl  0  0  0  0  0  0  0  0  0  0  0  0
   19.6953  -11.9605    5.6197 C   0  0  0  0  0  0  0  0  0  0  0  0
   20.7248  -10.1104    4.4617 C   0  0  0  0  0  0  0  0  0  0  0  0
   19.6247  -10.9315    4.6864 C   0  0  0  0  0  0  0  0  0  0  0  0
   20.6579   -9.0735    3.5234 N   0  0  0  0  0  0  0  0  0  0  0  0
   18.3310  -10.7171    3.9169 C   0  0  0  0  0  0  0  0  0  0  0  0
   20.6296   -7.6517    3.9060 C   0  0  0  0  0  0  0  0  0  0  0  0
   20.6044   -9.4216    2.1004 C   0  0  0  0  0  0  0  0  0  0  0  0
   17.4611  -11.8903    4.0842 N   0  0  0  0  0  0  0  0  0  0  0  0
   21.2505   -6.7408    2.8523 C   0  0  0  0  0  0  0  0  0  0  0  0
   20.1060   -8.1921    1.3679 C   0  0  0  0  0  0  0  0  0  0  0  0
   16.1663  -11.7289    4.5019 C   0  0  0  0  0  0  0  0  0  0  0  0
   21.1565   -7.2461    1.5235 O   0  0  0  0  0  0  0  0  0  0  0  0
   15.7423  -10.6300    4.7311 O   0  0  0  0  0  0  0  0  0  0  0  0
   15.3386  -12.8452    4.6611 N   0  0  0  0  0  0  0  0  0  0  0  0
   14.8640  -13.3703    5.9450 C   0  0  1  0  0  0  0  0  0  0  0  0
   14.8158  -13.6751    3.5784 C   0  0  0  0  0  0  0  0  0  0  0  0
   13.9640  -12.3652    6.6464 C   0  0  0  0  0  0  0  0  0  0  0  0
   14.0365  -14.5845    5.5761 C   0  0  0  0  0  0  0  0  0  0  0  0
   13.5601  -14.2651    4.1779 C   0  0  0  0  0  0  0  0  0  0  0  0
   13.0353  -11.6087    5.9400 C   0  0  0  0  0  0  0  0  0  0  0  0
   14.0587  -12.1868    8.0221 C   0  0  0  0  0  0  0  0  0  0  0  0
   12.2473  -10.7256    6.5707 N   0  0  0  0  0  0  0  0  0  0  0  0
   13.2337  -11.2663    8.6600 C   0  0  0  0  0  0  0  0  0  0  0  0
   12.3254  -10.5398    7.8963 C   0  0  0  0  0  0  0  0  0  0  0  0
   22.6991   -9.7128    5.0022 H   0  0  0  0  0  0  0  0  0  0  0  0
   18.9054  -12.5516    5.7825 H   0  0  0  0  0  0  0  0  0  0  0  0
   18.5373  -10.5909    2.9466 H   0  0  0  0  0  0  0  0  0  0  0  0
   17.8656   -9.9043    4.2673 H   0  0  0  0  0  0  0  0  0  0  0  0
   21.1358   -7.5415    4.7614 H   0  0  0  0  0  0  0  0  0  0  0  0
   19.6780   -7.3774    4.0442 H   0  0  0  0  0  0  0  0  0  0  0  0
   19.9765  -10.1866    1.9563 H   0  0  0  0  0  0  0  0  0  0  0  0
   21.5154   -9.6720    1.7727 H   0  0  0  0  0  0  0  0  0  0  0  0
   17.8144  -12.8060    3.8933 H   0  0  0  0  0  0  0  0  0  0  0  0
   22.2177   -6.6167    3.0740 H   0  0  0  0  0  0  0  0  0  0  0  0
   20.7845   -5.8567    2.8865 H   0  0  0  0  0  0  0  0  0  0  0  0
   19.2594   -7.8532    1.7783 H   0  0  0  0  0  0  0  0  0  0  0  0
   19.9501   -8.3938    0.4009 H   0  0  0  0  0  0  0  0  0  0  0  0
   15.6329  -13.6281    6.5300 H   0  0  0  0  0  0  0  0  0  0  0  0
   15.4664  -14.3925    3.3292 H   0  0  0  0  0  0  0  0  0  0  0  0
   14.6038  -13.1227    2.7723 H   0  0  0  0  0  0  0  0  0  0  0  0
   13.2643  -14.6958    6.2015 H   0  0  0  0  0  0  0  0  0  0  0  0
   14.5943  -15.4145    5.5842 H   0  0  0  0  0  0  0  0  0  0  0  0
   13.2717  -15.0891    3.6904 H   0  0  0  0  0  0  0  0  0  0  0  0
   12.8106  -13.6033    4.1868 H   0  0  0  0  0  0  0  0  0  0  0  0
   12.9539  -11.7246    4.9500 H   0  0  0  0  0  0  0  0  0  0  0  0
   14.7188  -12.7193    8.5520 H   0  0  0  0  0  0  0  0  0  0  0  0
   13.2925  -11.1291    9.6488 H   0  0  0  0  0  0  0  0  0  0  0  0
   11.7257   -9.8736    8.3399 H   0  0  0  0  0  0  0  0  0  0  0  0
  1  2  1  0  0  0  0
  2  3  2  0  0  0  0
  2  4  1  0  0  0  0
  3  5  1  0  0  0  0
  3  6  1  0  0  0  0
  4  7  2  0  0  0  0
  6  8  2  0  0  0  0
  7  9  1  0  0  0  0
  8 10  1  0  0  0  0
  9 11  1  0  0  0  0
  9 12  1  0  0  0  0
 10 13  1  0  0  0  0
 11 14  1  0  0  0  0
 12 15  1  0  0  0  0
 13 16  1  0  0  0  0
 14 17  1  0  0  0  0
 16 18  2  0  0  0  0
 16 19  1  0  0  0  0
 19 20  1  0  0  0  0
 19 21  1  0  0  0  0
 20 22  1  0  0  0  0
 20 23  1  0  0  0  0
 21 24  1  0  0  0  0
 22 25  2  0  0  0  0
 22 26  1  0  0  0  0
 25 27  1  0  0  0  0
 26 28  2  0  0  0  0
 27 29  2  0  0  0  0
  7  8  1  0  0  0  0
 15 17  1  0  0  0  0
 23 24  1  0  0  0  0
 28 29  1  0  0  0  0
  4 30  1  0  0  0  0
  6 31  1  0  0  0  0
 10 32  1  0  0  0  0
 10 33  1  0  0  0  0
 11 34  1  0  0  0  0
 11 35  1  0  0  0  0
 12 36  1  0  0  0  0
 12 37  1  0  0  0  0
 13 38  1  0  0  0  0
 14 39  1  0  0  0  0
 14 40  1  0  0  0  0
 15 41  1  0  0  0  0
 15 42  1  0  0  0  0
 20 43  1  0  0  0  0
 21 44  1  0  0  0  0
 21 45  1  0  0  0  0
 23 46  1  0  0  0  0
 23 47  1  0  0  0  0
 24 48  1  0  0  0  0
 24 49  1  0  0  0  0
 25 50  1  0  0  0  0
 26 51  1  0  0  0  0
 28 52  1  0  0  0  0
 29 53  1  0  0  0  0
M  END
> <BIOSOLVEIT.HYDE_ESTIMATED_AFFINITY_LOWER_BOUNDARY [nM]>
16821128.184961

> <BIOSOLVEIT.HYDE_ESTIMATED_AFFINITY_UPPER_BOUNDARY [nM]>
1671278539.556634

> <BIOSOLVEIT.HYDE_LIGAND_EFFICIENCY range: ++, +, 0, -, -->
--

> <BIOSOLVEIT.HYDE_LIGAND_LIPOPHILIC_EFFICIENCY range: ++, +, 0, -, -->
--

> <BIOSOLVEIT.INTER_CLASH range: red, yellow, green>
green

> <BIOSOLVEIT.INTRA_CLASH range: red, yellow, green>
green

> <BIOSOLVEIT.LOGP>
4.2717

> <BIOSOLVEIT.MOLECULAR WEIGHT>
435.353

> <BIOSOLVEIT.MOLECULE_CHECKSUM>
LTQuNDI2ODQ7MC4xNTI2NDk=

> <BIOSOLVEIT.TORSION_QUALITY range: red, yellow, green, not rotatable>
yellow

> <BIOSOLVEIT.TPSA>
57.7

> <BIOSOLVEIT.SEESAR_FAVORITE>
favorite

> <smc_score>
0.688

> <QED_score>
0.78

> <distance>
0.677

> <SimilarityPheSA_1>
0.677

> <Smiles>
O=C(NCc1cc(Cl)c(Cl)cc1N1CCOCC1)N1CCCC1c1cccnc1

> <Similarity_SkelSpheres>
0.661

> <Cluster No>
465.0

> <QueryID>
PET-UNK-3c72d439-1

> <SimilarityPheSA>
0.677

> <Postera series>
3-aminopyridine-like

> <PDB_code>
Mpro-x11810

> <Approach>
DGM_exploratory_RL

> <ID>
20210628_968

> <SimilarityPheSA_2>
0.647

> <OPTIBRIUM.logD>
3.14138

> <OPTIBRIUM.BBB category>
-

> <OPTIBRIUM.logP>
3.42457

> <OPTIBRIUM.P-gp category>
yes

> <OPTIBRIUM.logS>
0.979947

> <OPTIBRIUM.HIA category>
+

> <OPTIBRIUM.PPB90 category>
high

> <OPTIBRIUM.2D6 affinity category>
high

> <OPTIBRIUM.hERG pIC50>
5.56266

> <OPTIBRIUM.2C9 pKi>
5.82793

> <OPTIBRIUM.BBB log([brain]:[blood])>
-0.128593

> <OPTIBRIUM.logS @ pH7.4>
0.325185

$$$$
Compound 1698_1_04
haSeeSAR  07122114523D 1   1.00000     0.00000     0
SeeSAR 11.0.2 hazemaj
 53 56  0  0  0  0            999 V2000
   23.2692  -12.1419    8.1574 Cl  0  0  0  0  0  0  0  0  0  0  0  0
   21.9445  -11.7521    7.0343 C   0  0  0  0  0  0  0  0  0  0  0  0
   20.7457  -12.4528    7.1129 C   0  0  0  0  0  0  0  0  0  0  0  0
   22.1178  -10.7493    6.0861 C   0  0  0  0  0  0  0  0  0  0  0  0
   20.5416  -13.7323    8.3329 Cl  0  0  0  0  0  0  0  0  0  0  0  0
   19.7016  -12.1598    6.2420 C   0  0  0  0  0  0  0  0  0  0  0  0
   21.0720  -10.4587    5.2163 C   0  0  0  0  0  0  0  0  0  0  0  0
   19.8718  -11.1579    5.2923 C   0  0  0  0  0  0  0  0  0  0  0  0
   21.2476   -9.4495    4.2622 N   0  0  0  0  0  0  0  0  0  0  0  0
   18.7303  -10.8377    4.3405 C   0  0  0  0  0  0  0  0  0  0  0  0
   20.9127   -8.0449    4.5211 C   0  0  0  0  0  0  0  0  0  0  0  0
   21.7772   -9.6768    2.9172 C   0  0  0  0  0  0  0  0  0  0  0  0
   17.7599  -11.9419    4.3504 N   0  0  0  0  0  0  0  0  0  0  0  0
   21.9530   -7.2240    3.7772 C   0  0  0  0  0  0  0  0  0  0  0  0
   23.1676   -9.0621    2.9475 C   0  0  0  0  0  0  0  0  0  0  0  0
   16.4607  -11.7088    4.7170 C   0  0  0  0  0  0  0  0  0  0  0  0
   23.1992   -7.9064    3.7747 O   0  0  0  0  0  0  0  0  0  0  0  0
   16.1147  -10.6032    5.0301 O   0  0  0  0  0  0  0  0  0  0  0  0
   15.5373  -12.7595    4.7263 N   0  0  0  0  0  0  0  0  0  0  0  0
   14.9164  -13.3294    5.9260 C   0  0  1  0  0  0  0  0  0  0  0  0
   15.0440  -13.4661    3.5467 C   0  0  0  0  0  0  0  0  0  0  0  0
   14.0423  -12.3024    6.6283 C   0  0  0  0  0  0  0  0  0  0  0  0
   14.0301  -14.4412    5.4030 C   0  0  0  0  0  0  0  0  0  0  0  0
   13.6999  -13.9876    3.9998 C   0  0  0  0  0  0  0  0  0  0  0  0
   13.2089  -11.4501    5.9120 C   0  0  0  0  0  0  0  0  0  0  0  0
   14.0645  -12.2004    8.0148 C   0  0  0  0  0  0  0  0  0  0  0  0
   12.4428  -10.5487    6.5436 N   0  0  0  0  0  0  0  0  0  0  0  0
   13.2634  -11.2595    8.6536 C   0  0  0  0  0  0  0  0  0  0  0  0
   12.4520  -10.4356    7.8797 C   0  0  0  0  0  0  0  0  0  0  0  0
   22.9799  -10.2457    6.0307 H   0  0  0  0  0  0  0  0  0  0  0  0
   18.8393  -12.6632    6.2979 H   0  0  0  0  0  0  0  0  0  0  0  0
   19.0909  -10.7193    3.4153 H   0  0  0  0  0  0  0  0  0  0  0  0
   18.2789   -9.9947    4.6327 H   0  0  0  0  0  0  0  0  0  0  0  0
   20.9542   -7.8526    5.5015 H   0  0  0  0  0  0  0  0  0  0  0  0
   19.9963   -7.8372    4.1791 H   0  0  0  0  0  0  0  0  0  0  0  0
   21.2060   -9.2256    2.2314 H   0  0  0  0  0  0  0  0  0  0  0  0
   21.8275  -10.6553    2.7177 H   0  0  0  0  0  0  0  0  0  0  0  0
   18.0482  -12.8633    4.0894 H   0  0  0  0  0  0  0  0  0  0  0  0
   22.0613   -6.3385    4.2291 H   0  0  0  0  0  0  0  0  0  0  0  0
   21.6511   -7.0824    2.8344 H   0  0  0  0  0  0  0  0  0  0  0  0
   23.4313   -8.8053    2.0177 H   0  0  0  0  0  0  0  0  0  0  0  0
   23.8148   -9.7362    3.3034 H   0  0  0  0  0  0  0  0  0  0  0  0
   15.6106  -13.6908    6.5484 H   0  0  0  0  0  0  0  0  0  0  0  0
   15.6550  -14.2171    3.2960 H   0  0  0  0  0  0  0  0  0  0  0  0
   14.9449  -12.8437    2.7703 H   0  0  0  0  0  0  0  0  0  0  0  0
   13.2015  -14.5295    5.9558 H   0  0  0  0  0  0  0  0  0  0  0  0
   14.5182  -15.3139    5.3923 H   0  0  0  0  0  0  0  0  0  0  0  0
   13.3896  -14.7490    3.4305 H   0  0  0  0  0  0  0  0  0  0  0  0
   13.0065  -13.2670    3.9996 H   0  0  0  0  0  0  0  0  0  0  0  0
   13.1806  -11.5101    4.9142 H   0  0  0  0  0  0  0  0  0  0  0  0
   14.6553  -12.8025    8.5519 H   0  0  0  0  0  0  0  0  0  0  0  0
   13.2707  -11.1767    9.6500 H   0  0  0  0  0  0  0  0  0  0  0  0
   11.8707   -9.7536    8.3236 H   0  0  0  0  0  0  0  0  0  0  0  0
  1  2  1  0  0  0  0
  2  3  2  0  0  0  0
  2  4  1  0  0  0  0
  3  5  1  0  0  0  0
  3  6  1  0  0  0  0
  4  7  2  0  0  0  0
  6  8  2  0  0  0  0
  7  9  1  0  0  0  0
  8 10  1  0  0  0  0
  9 11  1  0  0  0  0
  9 12  1  0  0  0  0
 10 13  1  0  0  0  0
 11 14  1  0  0  0  0
 12 15  1  0  0  0  0
 13 16  1  0  0  0  0
 14 17  1  0  0  0  0
 16 18  2  0  0  0  0
 16 19  1  0  0  0  0
 19 20  1  0  0  0  0
 19 21  1  0  0  0  0
 20 22  1  0  0  0  0
 20 23  1  0  0  0  0
 21 24  1  0  0  0  0
 22 25  2  0  0  0  0
 22 26  1  0  0  0  0
 25 27  1  0  0  0  0
 26 28  2  0  0  0  0
 27 29  2  0  0  0  0
  7  8  1  0  0  0  0
 15 17  1  0  0  0  0
 23 24  1  0  0  0  0
 28 29  1  0  0  0  0
  4 30  1  0  0  0  0
  6 31  1  0  0  0  0
 10 32  1  0  0  0  0
 10 33  1  0  0  0  0
 11 34  1  0  0  0  0
 11 35  1  0  0  0  0
 12 36  1  0  0  0  0
 12 37  1  0  0  0  0
 13 38  1  0  0  0  0
 14 39  1  0  0  0  0
 14 40  1  0  0  0  0
 15 41  1  0  0  0  0
 15 42  1  0  0  0  0
 20 43  1  0  0  0  0
 21 44  1  0  0  0  0
 21 45  1  0  0  0  0
 23 46  1  0  0  0  0
 23 47  1  0  0  0  0
 24 48  1  0  0  0  0
 24 49  1  0  0  0  0
 25 50  1  0  0  0  0
 26 51  1  0  0  0  0
 28 52  1  0  0  0  0
 29 53  1  0  0  0  0
M  END
> <BIOSOLVEIT.HYDE_ESTIMATED_AFFINITY_LOWER_BOUNDARY [nM]>
57732961.943478

> <BIOSOLVEIT.HYDE_ESTIMATED_AFFINITY_UPPER_BOUNDARY [nM]>
5736111113.369987

> <BIOSOLVEIT.HYDE_LIGAND_EFFICIENCY range: ++, +, 0, -, -->
--

> <BIOSOLVEIT.HYDE_LIGAND_LIPOPHILIC_EFFICIENCY range: ++, +, 0, -, -->
--

> <BIOSOLVEIT.INTER_CLASH range: red, yellow, green>
green

> <BIOSOLVEIT.INTRA_CLASH range: red, yellow, green>
green

> <BIOSOLVEIT.LOGP>
4.2717

> <BIOSOLVEIT.MOLECULAR WEIGHT>
435.353

> <BIOSOLVEIT.MOLECULE_CHECKSUM>
LTEuMzY5ODswLjA0NzIzNDY=

> <BIOSOLVEIT.TORSION_QUALITY range: red, yellow, green, not rotatable>
yellow

> <BIOSOLVEIT.TPSA>
57.7

> <BIOSOLVEIT.SEESAR_FAVORITE>
favorite

> <smc_score>
0.688

> <QED_score>
0.78

> <distance>
0.677

> <SimilarityPheSA_1>
0.677

> <Smiles>
O=C(NCc1cc(Cl)c(Cl)cc1N1CCOCC1)N1CCCC1c1cccnc1

> <Similarity_SkelSpheres>
0.661

> <Cluster No>
465.0

> <QueryID>
PET-UNK-3c72d439-1

> <SimilarityPheSA>
0.677

> <Postera series>
3-aminopyridine-like

> <PDB_code>
Mpro-x11810

> <Approach>
DGM_exploratory_RL

> <ID>
20210628_968

> <SimilarityPheSA_2>
0.647

> <OPTIBRIUM.logD>
3.14138

> <OPTIBRIUM.BBB category>
-

> <OPTIBRIUM.logP>
3.42457

> <OPTIBRIUM.P-gp category>
yes

> <OPTIBRIUM.logS>
0.979947

> <OPTIBRIUM.HIA category>
+

> <OPTIBRIUM.PPB90 category>
high

> <OPTIBRIUM.2D6 affinity category>
high

> <OPTIBRIUM.hERG pIC50>
5.56266

> <OPTIBRIUM.2C9 pKi>
5.82793

> <OPTIBRIUM.BBB log([brain]:[blood])>
-0.128593

> <OPTIBRIUM.logS @ pH7.4>
0.325185

$$$$
Compound 1698_1_06
haSeeSAR  07122114523D 1   1.00000     0.00000     0
SeeSAR 11.0.2 hazemaj
 53 56  0  0  0  0            999 V2000
   23.6983  -11.7785    7.4358 Cl  0  0  0  0  0  0  0  0  0  0  0  0
   22.2445  -11.4128    6.4764 C   0  0  0  0  0  0  0  0  0  0  0  0
   21.0484  -12.0623    6.7627 C   0  0  0  0  0  0  0  0  0  0  0  0
   22.3149  -10.4798    5.4472 C   0  0  0  0  0  0  0  0  0  0  0  0
   20.9767  -13.2528    8.0837 Cl  0  0  0  0  0  0  0  0  0  0  0  0
   19.9040  -11.7873    6.0215 C   0  0  0  0  0  0  0  0  0  0  0  0
   21.1691  -10.2072    4.7076 C   0  0  0  0  0  0  0  0  0  0  0  0
   19.9714  -10.8551    4.9913 C   0  0  0  0  0  0  0  0  0  0  0  0
   21.2413   -9.2681    3.6718 N   0  0  0  0  0  0  0  0  0  0  0  0
   18.7202  -10.5548    4.1814 C   0  0  0  0  0  0  0  0  0  0  0  0
   21.5082   -7.8436    3.8493 C   0  0  0  0  0  0  0  0  0  0  0  0
   21.0424   -9.6139    2.2653 C   0  0  0  0  0  0  0  0  0  0  0  0
   17.8188  -11.7153    4.2235 N   0  0  0  0  0  0  0  0  0  0  0  0
   20.1762   -7.1458    3.6381 C   0  0  0  0  0  0  0  0  0  0  0  0
   20.3414   -8.4198    1.6398 C   0  0  0  0  0  0  0  0  0  0  0  0
   16.5281  -11.5646    4.6574 C   0  0  0  0  0  0  0  0  0  0  0  0
   19.4762   -7.8148    2.5962 O   0  0  0  0  0  0  0  0  0  0  0  0
   16.1334  -10.4853    5.0031 O   0  0  0  0  0  0  0  0  0  0  0  0
   15.6704  -12.6688    4.6976 N   0  0  0  0  0  0  0  0  0  0  0  0
   15.0919  -13.2468    5.9143 C   0  0  1  0  0  0  0  0  0  0  0  0
   15.2145  -13.4317    3.5380 C   0  0  0  0  0  0  0  0  0  0  0  0
   14.1609  -12.2585    6.5986 C   0  0  0  0  0  0  0  0  0  0  0  0
   14.2720  -14.4224    5.4235 C   0  0  0  0  0  0  0  0  0  0  0  0
   13.9070  -14.0229    4.0124 C   0  0  0  0  0  0  0  0  0  0  0  0
   13.3158  -11.4328    5.8649 C   0  0  0  0  0  0  0  0  0  0  0  0
   14.1413  -12.1658    7.9858 C   0  0  0  0  0  0  0  0  0  0  0  0
   12.4994  -10.5654    6.4808 N   0  0  0  0  0  0  0  0  0  0  0  0
   13.2883  -11.2603    8.6081 C   0  0  0  0  0  0  0  0  0  0  0  0
   12.4678  -10.4618    7.8173 C   0  0  0  0  0  0  0  0  0  0  0  0
   23.1752  -10.0130    5.2425 H   0  0  0  0  0  0  0  0  0  0  0  0
   19.0437  -12.2540    6.2267 H   0  0  0  0  0  0  0  0  0  0  0  0
   18.9747  -10.3647    3.2331 H   0  0  0  0  0  0  0  0  0  0  0  0
   18.2561   -9.7580    4.5680 H   0  0  0  0  0  0  0  0  0  0  0  0
   22.1776   -7.5280    3.1767 H   0  0  0  0  0  0  0  0  0  0  0  0
   21.8526   -7.6657    4.7711 H   0  0  0  0  0  0  0  0  0  0  0  0
   20.4738  -10.4327    2.1852 H   0  0  0  0  0  0  0  0  0  0  0  0
   21.9225   -9.7742    1.8184 H   0  0  0  0  0  0  0  0  0  0  0  0
   18.1477  -12.6146    3.9355 H   0  0  0  0  0  0  0  0  0  0  0  0
   20.3321   -6.1920    3.3812 H   0  0  0  0  0  0  0  0  0  0  0  0
   19.6398   -7.1805    4.4813 H   0  0  0  0  0  0  0  0  0  0  0  0
   19.8053   -8.7242    0.8525 H   0  0  0  0  0  0  0  0  0  0  0  0
   21.0239   -7.7530    1.3407 H   0  0  0  0  0  0  0  0  0  0  0  0
   15.8102  -13.5507    6.5402 H   0  0  0  0  0  0  0  0  0  0  0  0
   15.8685  -14.1499    3.3005 H   0  0  0  0  0  0  0  0  0  0  0  0
   15.0734  -12.8350    2.7480 H   0  0  0  0  0  0  0  0  0  0  0  0
   13.4533  -14.5477    5.9839 H   0  0  0  0  0  0  0  0  0  0  0  0
   14.8122  -15.2640    5.4296 H   0  0  0  0  0  0  0  0  0  0  0  0
   13.6405  -14.8148    3.4631 H   0  0  0  0  0  0  0  0  0  0  0  0
   13.1711  -13.3459    4.0003 H   0  0  0  0  0  0  0  0  0  0  0  0
   13.3171  -11.4867    4.8664 H   0  0  0  0  0  0  0  0  0  0  0  0
   14.7395  -12.7493    8.5353 H   0  0  0  0  0  0  0  0  0  0  0  0
   13.2651  -11.1846    9.6050 H   0  0  0  0  0  0  0  0  0  0  0  0
   11.8494   -9.8053    8.2493 H   0  0  0  0  0  0  0  0  0  0  0  0
  1  2  1  0  0  0  0
  2  3  2  0  0  0  0
  2  4  1  0  0  0  0
  3  5  1  0  0  0  0
  3  6  1  0  0  0  0
  4  7  2  0  0  0  0
  6  8  2  0  0  0  0
  7  9  1  0  0  0  0
  8 10  1  0  0  0  0
  9 11  1  0  0  0  0
  9 12  1  0  0  0  0
 10 13  1  0  0  0  0
 11 14  1  0  0  0  0
 12 15  1  0  0  0  0
 13 16  1  0  0  0  0
 14 17  1  0  0  0  0
 16 18  2  0  0  0  0
 16 19  1  0  0  0  0
 19 20  1  0  0  0  0
 19 21  1  0  0  0  0
 20 22  1  0  0  0  0
 20 23  1  0  0  0  0
 21 24  1  0  0  0  0
 22 25  2  0  0  0  0
 22 26  1  0  0  0  0
 25 27  1  0  0  0  0
 26 28  2  0  0  0  0
 27 29  2  0  0  0  0
  7  8  1  0  0  0  0
 15 17  1  0  0  0  0
 23 24  1  0  0  0  0
 28 29  1  0  0  0  0
  4 30  1  0  0  0  0
  6 31  1  0  0  0  0
 10 32  1  0  0  0  0
 10 33  1  0  0  0  0
 11 34  1  0  0  0  0
 11 35  1  0  0  0  0
 12 36  1  0  0  0  0
 12 37  1  0  0  0  0
 13 38  1  0  0  0  0
 14 39  1  0  0  0  0
 14 40  1  0  0  0  0
 15 41  1  0  0  0  0
 15 42  1  0  0  0  0
 20 43  1  0  0  0  0
 21 44  1  0  0  0  0
 21 45  1  0  0  0  0
 23 46  1  0  0  0  0
 23 47  1  0  0  0  0
 24 48  1  0  0  0  0
 24 49  1  0  0  0  0
 25 50  1  0  0  0  0
 26 51  1  0  0  0  0
 28 52  1  0  0  0  0
 29 53  1  0  0  0  0
M  END
> <BIOSOLVEIT.HYDE_ESTIMATED_AFFINITY_LOWER_BOUNDARY [nM]>
56326954.749076

> <BIOSOLVEIT.HYDE_ESTIMATED_AFFINITY_UPPER_BOUNDARY [nM]>
5596415985.633688

> <BIOSOLVEIT.HYDE_LIGAND_EFFICIENCY range: ++, +, 0, -, -->
--

> <BIOSOLVEIT.HYDE_LIGAND_LIPOPHILIC_EFFICIENCY range: ++, +, 0, -, -->
--

> <BIOSOLVEIT.INTER_CLASH range: red, yellow, green>
green

> <BIOSOLVEIT.INTRA_CLASH range: red, yellow, green>
green

> <BIOSOLVEIT.LOGP>
4.2717

> <BIOSOLVEIT.MOLECULAR WEIGHT>
435.353

> <BIOSOLVEIT.MOLECULE_CHECKSUM>
LTEuNDMwOTI7MC4wNDkzNDIy

> <BIOSOLVEIT.TORSION_QUALITY range: red, yellow, green, not rotatable>
red

> <BIOSOLVEIT.TPSA>
57.7

> <BIOSOLVEIT.SEESAR_FAVORITE>
favorite

> <smc_score>
0.688

> <QED_score>
0.78

> <distance>
0.677

> <SimilarityPheSA_1>
0.677

> <Smiles>
O=C(NCc1cc(Cl)c(Cl)cc1N1CCOCC1)N1CCCC1c1cccnc1

> <Similarity_SkelSpheres>
0.661

> <Cluster No>
465.0

> <QueryID>
PET-UNK-3c72d439-1

> <SimilarityPheSA>
0.677

> <Postera series>
3-aminopyridine-like

> <PDB_code>
Mpro-x11810

> <Approach>
DGM_exploratory_RL

> <ID>
20210628_968

> <SimilarityPheSA_2>
0.647

> <OPTIBRIUM.logD>
3.14138

> <OPTIBRIUM.BBB category>
-

> <OPTIBRIUM.logP>
3.42457

> <OPTIBRIUM.P-gp category>
yes

> <OPTIBRIUM.logS>
0.979947

> <OPTIBRIUM.HIA category>
+

> <OPTIBRIUM.PPB90 category>
high

> <OPTIBRIUM.2D6 affinity category>
high

> <OPTIBRIUM.hERG pIC50>
5.56266

> <OPTIBRIUM.2C9 pKi>
5.82793

> <OPTIBRIUM.BBB log([brain]:[blood])>
-0.128593

> <OPTIBRIUM.logS @ pH7.4>
0.325185

$$$$
Compound 1698_1_08
haSeeSAR  07122114523D 1   1.00000     0.00000     0
SeeSAR 11.0.2 hazemaj
 53 56  0  0  0  0            999 V2000
   23.7199  -11.6565    7.3364 Cl  0  0  0  0  0  0  0  0  0  0  0  0
   22.2458  -11.3143    6.3993 C   0  0  0  0  0  0  0  0  0  0  0  0
   21.0682  -11.9928    6.6949 C   0  0  0  0  0  0  0  0  0  0  0  0
   22.2823  -10.3707    5.3782 C   0  0  0  0  0  0  0  0  0  0  0  0
   21.0401  -13.1965    8.0055 Cl  0  0  0  0  0  0  0  0  0  0  0  0
   19.9084  -11.7363    5.9713 C   0  0  0  0  0  0  0  0  0  0  0  0
   21.1211  -10.1167    4.6560 C   0  0  0  0  0  0  0  0  0  0  0  0
   19.9417  -10.7935    4.9491 C   0  0  0  0  0  0  0  0  0  0  0  0
   21.1589   -9.1669    3.6282 N   0  0  0  0  0  0  0  0  0  0  0  0
   18.6738  -10.5135    4.1582 C   0  0  0  0  0  0  0  0  0  0  0  0
   21.2912   -7.7419    3.9698 C   0  0  0  0  0  0  0  0  0  0  0  0
   21.0420   -9.6179    2.2327 C   0  0  0  0  0  0  0  0  0  0  0  0
   17.7920  -11.6883    4.2137 N   0  0  0  0  0  0  0  0  0  0  0  0
   20.5545   -6.8674    2.9665 C   0  0  0  0  0  0  0  0  0  0  0  0
   20.3253   -8.5794    1.3826 C   0  0  0  0  0  0  0  0  0  0  0  0
   16.5037  -11.5573    4.6610 C   0  0  0  0  0  0  0  0  0  0  0  0
   20.8227   -7.2706    1.6295 O   0  0  0  0  0  0  0  0  0  0  0  0
   16.0950  -10.4835    5.0073 O   0  0  0  0  0  0  0  0  0  0  0  0
   15.6646  -12.6752    4.7139 N   0  0  0  0  0  0  0  0  0  0  0  0
   15.0954  -13.2487    5.9373 C   0  0  1  0  0  0  0  0  0  0  0  0
   15.2222  -13.4593    3.5633 C   0  0  0  0  0  0  0  0  0  0  0  0
   14.1471  -12.2678    6.6101 C   0  0  0  0  0  0  0  0  0  0  0  0
   14.2957  -14.4436    5.4600 C   0  0  0  0  0  0  0  0  0  0  0  0
   13.9247  -14.0669    4.0444 C   0  0  0  0  0  0  0  0  0  0  0  0
   13.2844  -11.4589    5.8784 C   0  0  0  0  0  0  0  0  0  0  0  0
   14.1326  -12.1672    7.9969 C   0  0  0  0  0  0  0  0  0  0  0  0
   12.4568  -10.6007    6.4922 N   0  0  0  0  0  0  0  0  0  0  0  0
   13.2692  -11.2726    8.6202 C   0  0  0  0  0  0  0  0  0  0  0  0
   12.4325  -10.4928    7.8286 C   0  0  0  0  0  0  0  0  0  0  0  0
   23.1294   -9.8830    5.1667 H   0  0  0  0  0  0  0  0  0  0  0  0
   19.0613  -12.2237    6.1831 H   0  0  0  0  0  0  0  0  0  0  0  0
   18.9107  -10.3193    3.2063 H   0  0  0  0  0  0  0  0  0  0  0  0
   18.2026   -9.7243    4.5521 H   0  0  0  0  0  0  0  0  0  0  0  0
   22.2601   -7.4945    3.9692 H   0  0  0  0  0  0  0  0  0  0  0  0
   20.9083   -7.5875    4.8805 H   0  0  0  0  0  0  0  0  0  0  0  0
   20.5256  -10.4738    2.2078 H   0  0  0  0  0  0  0  0  0  0  0  0
   21.9576   -9.7699    1.8604 H   0  0  0  0  0  0  0  0  0  0  0  0
   18.1325  -12.5831    3.9252 H   0  0  0  0  0  0  0  0  0  0  0  0
   20.8478   -5.9188    3.0850 H   0  0  0  0  0  0  0  0  0  0  0  0
   19.5714   -6.9359    3.1357 H   0  0  0  0  0  0  0  0  0  0  0  0
   19.3488   -8.6017    1.5971 H   0  0  0  0  0  0  0  0  0  0  0  0
   20.4596   -8.8012    0.4168 H   0  0  0  0  0  0  0  0  0  0  0  0
   15.8186  -13.5331    6.5667 H   0  0  0  0  0  0  0  0  0  0  0  0
   15.8884  -14.1690    3.3344 H   0  0  0  0  0  0  0  0  0  0  0  0
   15.0714  -12.8743    2.7664 H   0  0  0  0  0  0  0  0  0  0  0  0
   13.4790  -14.5762    6.0217 H   0  0  0  0  0  0  0  0  0  0  0  0
   14.8500  -15.2758    5.4762 H   0  0  0  0  0  0  0  0  0  0  0  0
   13.6717  -14.8695    3.5042 H   0  0  0  0  0  0  0  0  0  0  0  0
   13.1775  -13.4025    4.0241 H   0  0  0  0  0  0  0  0  0  0  0  0
   13.2813  -11.5182    4.8801 H   0  0  0  0  0  0  0  0  0  0  0  0
   14.7429  -12.7382    8.5459 H   0  0  0  0  0  0  0  0  0  0  0  0
   13.2503  -11.1916    9.6168 H   0  0  0  0  0  0  0  0  0  0  0  0
   11.8059   -9.8445    8.2610 H   0  0  0  0  0  0  0  0  0  0  0  0
  1  2  1  0  0  0  0
  2  3  2  0  0  0  0
  2  4  1  0  0  0  0
  3  5  1  0  0  0  0
  3  6  1  0  0  0  0
  4  7  2  0  0  0  0
  6  8  2  0  0  0  0
  7  9  1  0  0  0  0
  8 10  1  0  0  0  0
  9 11  1  0  0  0  0
  9 12  1  0  0  0  0
 10 13  1  0  0  0  0
 11 14  1  0  0  0  0
 12 15  1  0  0  0  0
 13 16  1  0  0  0  0
 14 17  1  0  0  0  0
 16 18  2  0  0  0  0
 16 19  1  0  0  0  0
 19 20  1  0  0  0  0
 19 21  1  0  0  0  0
 20 22  1  0  0  0  0
 20 23  1  0  0  0  0
 21 24  1  0  0  0  0
 22 25  2  0  0  0  0
 22 26  1  0  0  0  0
 25 27  1  0  0  0  0
 26 28  2  0  0  0  0
 27 29  2  0  0  0  0
  7  8  1  0  0  0  0
 15 17  1  0  0  0  0
 23 24  1  0  0  0  0
 28 29  1  0  0  0  0
  4 30  1  0  0  0  0
  6 31  1  0  0  0  0
 10 32  1  0  0  0  0
 10 33  1  0  0  0  0
 11 34  1  0  0  0  0
 11 35  1  0  0  0  0
 12 36  1  0  0  0  0
 12 37  1  0  0  0  0
 13 38  1  0  0  0  0
 14 39  1  0  0  0  0
 14 40  1  0  0  0  0
 15 41  1  0  0  0  0
 15 42  1  0  0  0  0
 20 43  1  0  0  0  0
 21 44  1  0  0  0  0
 21 45  1  0  0  0  0
 23 46  1  0  0  0  0
 23 47  1  0  0  0  0
 24 48  1  0  0  0  0
 24 49  1  0  0  0  0
 25 50  1  0  0  0  0
 26 51  1  0  0  0  0
 28 52  1  0  0  0  0
 29 53  1  0  0  0  0
M  END
> <BIOSOLVEIT.HYDE_ESTIMATED_AFFINITY_LOWER_BOUNDARY [nM]>
16387430.842742

> <BIOSOLVEIT.HYDE_ESTIMATED_AFFINITY_UPPER_BOUNDARY [nM]>
1628188144.385533

> <BIOSOLVEIT.HYDE_LIGAND_EFFICIENCY range: ++, +, 0, -, -->
--

> <BIOSOLVEIT.HYDE_LIGAND_LIPOPHILIC_EFFICIENCY range: ++, +, 0, -, -->
--

> <BIOSOLVEIT.INTER_CLASH range: red, yellow, green>
green

> <BIOSOLVEIT.INTRA_CLASH range: red, yellow, green>
green

> <BIOSOLVEIT.LOGP>
4.2717

> <BIOSOLVEIT.MOLECULAR WEIGHT>
435.353

> <BIOSOLVEIT.MOLECULE_CHECKSUM>
LTQuNDkxNTk7MC4xNTQ4ODI=

> <BIOSOLVEIT.TORSION_QUALITY range: red, yellow, green, not rotatable>
red

> <BIOSOLVEIT.TPSA>
57.7

> <BIOSOLVEIT.SEESAR_FAVORITE>
favorite

> <smc_score>
0.688

> <QED_score>
0.78

> <distance>
0.677

> <SimilarityPheSA_1>
0.677

> <Smiles>
O=C(NCc1cc(Cl)c(Cl)cc1N1CCOCC1)N1CCCC1c1cccnc1

> <Similarity_SkelSpheres>
0.661

> <Cluster No>
465.0

> <QueryID>
PET-UNK-3c72d439-1

> <SimilarityPheSA>
0.677

> <Postera series>
3-aminopyridine-like

> <PDB_code>
Mpro-x11810

> <Approach>
DGM_exploratory_RL

> <ID>
20210628_968

> <SimilarityPheSA_2>
0.647

> <OPTIBRIUM.logD>
3.14138

> <OPTIBRIUM.BBB category>
-

> <OPTIBRIUM.logP>
3.42457

> <OPTIBRIUM.P-gp category>
yes

> <OPTIBRIUM.logS>
0.979947

> <OPTIBRIUM.HIA category>
+

> <OPTIBRIUM.PPB90 category>
high

> <OPTIBRIUM.2D6 affinity category>
high

> <OPTIBRIUM.hERG pIC50>
5.56266

> <OPTIBRIUM.2C9 pKi>
5.82793

> <OPTIBRIUM.BBB log([brain]:[blood])>
-0.128593

> <OPTIBRIUM.logS @ pH7.4>
0.325185

$$$$
Compound 1698_1_10
haSeeSAR  07122114523D 1   1.00000     0.00000     0
SeeSAR 11.0.2 hazemaj
 53 56  0  0  0  0            999 V2000
   18.8093  -12.3253   12.8210 Cl  0  0  0  0  0  0  0  0  0  0  0  0
   18.7495  -11.8722   11.1008 C   0  0  0  0  0  0  0  0  0  0  0  0
   17.5515  -11.9764   10.4019 C   0  0  0  0  0  0  0  0  0  0  0  0
   19.9013  -11.4171   10.4678 C   0  0  0  0  0  0  0  0  0  0  0  0
   16.0875  -12.5603   11.2282 Cl  0  0  0  0  0  0  0  0  0  0  0  0
   17.4893  -11.6264    9.0572 C   0  0  0  0  0  0  0  0  0  0  0  0
   19.8362  -11.0682    9.1231 C   0  0  0  0  0  0  0  0  0  0  0  0
   18.6395  -11.1713    8.4212 C   0  0  0  0  0  0  0  0  0  0  0  0
   20.9961  -10.6103    8.4869 N   0  0  0  0  0  0  0  0  0  0  0  0
   18.5712  -10.7888    6.9512 C   0  0  0  0  0  0  0  0  0  0  0  0
   21.3140   -9.1821    8.3449 C   0  0  0  0  0  0  0  0  0  0  0  0
   22.0112  -11.5055    7.9038 C   0  0  0  0  0  0  0  0  0  0  0  0
   17.7631  -11.7787    6.2245 N   0  0  0  0  0  0  0  0  0  0  0  0
   22.1685   -8.9708    7.1025 C   0  0  0  0  0  0  0  0  0  0  0  0
   23.3798  -10.8383    7.9505 C   0  0  0  0  0  0  0  0  0  0  0  0
   16.8244  -11.3633    5.3172 C   0  0  0  0  0  0  0  0  0  0  0  0
   23.4185   -9.6457    7.1730 O   0  0  0  0  0  0  0  0  0  0  0  0
   16.6618  -10.1915    5.1157 O   0  0  0  0  0  0  0  0  0  0  0  0
   16.0531  -12.3079    4.6236 N   0  0  0  0  0  0  0  0  0  0  0  0
   14.8903  -13.0384    5.1483 C   0  0  1  0  0  0  0  0  0  0  0  0
   16.2648  -12.7333    3.2417 C   0  0  0  0  0  0  0  0  0  0  0  0
   14.0616  -12.1659    6.0790 C   0  0  0  0  0  0  0  0  0  0  0  0
   14.0872  -13.4680    3.9336 C   0  0  0  0  0  0  0  0  0  0  0  0
   14.8443  -12.9060    2.7454 C   0  0  0  0  0  0  0  0  0  0  0  0
   12.9352  -11.4809    5.6364 C   0  0  0  0  0  0  0  0  0  0  0  0
   14.4304  -12.0411    7.4138 C   0  0  0  0  0  0  0  0  0  0  0  0
   12.2192  -10.7169    6.4741 N   0  0  0  0  0  0  0  0  0  0  0  0
   13.6786  -11.2450    8.2715 C   0  0  0  0  0  0  0  0  0  0  0  0
   12.5635  -10.5869    7.7637 C   0  0  0  0  0  0  0  0  0  0  0  0
   20.7621  -11.3419   10.9713 H   0  0  0  0  0  0  0  0  0  0  0  0
   16.6283  -11.7011    8.5540 H   0  0  0  0  0  0  0  0  0  0  0  0
   19.4950  -10.7674    6.5691 H   0  0  0  0  0  0  0  0  0  0  0  0
   18.1521   -9.8853    6.8611 H   0  0  0  0  0  0  0  0  0  0  0  0
   21.8166   -8.8711    9.1515 H   0  0  0  0  0  0  0  0  0  0  0  0
   20.4659   -8.6594    8.2585 H   0  0  0  0  0  0  0  0  0  0  0  0
   21.7714  -11.7040    6.9534 H   0  0  0  0  0  0  0  0  0  0  0  0
   22.0401  -12.3582    8.4255 H   0  0  0  0  0  0  0  0  0  0  0  0
   17.8985  -12.7551    6.3924 H   0  0  0  0  0  0  0  0  0  0  0  0
   22.3395   -7.9914    6.9950 H   0  0  0  0  0  0  0  0  0  0  0  0
   21.6662   -9.3106    6.3074 H   0  0  0  0  0  0  0  0  0  0  0  0
   24.0626  -11.4771    7.5960 H   0  0  0  0  0  0  0  0  0  0  0  0
   23.5963  -10.6118    8.9000 H   0  0  0  0  0  0  0  0  0  0  0  0
   15.2030  -13.8489    5.6436 H   0  0  0  0  0  0  0  0  0  0  0  0
   16.7715  -13.5943    3.1999 H   0  0  0  0  0  0  0  0  0  0  0  0
   16.7508  -12.0346    2.7167 H   0  0  0  0  0  0  0  0  0  0  0  0
   13.1622  -13.0901    3.9720 H   0  0  0  0  0  0  0  0  0  0  0  0
   14.0378  -14.4654    3.8794 H   0  0  0  0  0  0  0  0  0  0  0  0
   14.8147  -13.5428    1.9751 H   0  0  0  0  0  0  0  0  0  0  0  0
   14.4590  -12.0265    2.4658 H   0  0  0  0  0  0  0  0  0  0  0  0
   12.6550  -11.5593    4.6796 H   0  0  0  0  0  0  0  0  0  0  0  0
   15.2362  -12.5237    7.7571 H   0  0  0  0  0  0  0  0  0  0  0  0
   13.9347  -11.1477    9.2333 H   0  0  0  0  0  0  0  0  0  0  0  0
   12.0123  -10.0105    8.3670 H   0  0  0  0  0  0  0  0  0  0  0  0
  1  2  1  0  0  0  0
  2  3  2  0  0  0  0
  2  4  1  0  0  0  0
  3  5  1  0  0  0  0
  3  6  1  0  0  0  0
  4  7  2  0  0  0  0
  6  8  2  0  0  0  0
  7  9  1  0  0  0  0
  8 10  1  0  0  0  0
  9 11  1  0  0  0  0
  9 12  1  0  0  0  0
 10 13  1  0  0  0  0
 11 14  1  0  0  0  0
 12 15  1  0  0  0  0
 13 16  1  0  0  0  0
 14 17  1  0  0  0  0
 16 18  2  0  0  0  0
 16 19  1  0  0  0  0
 19 20  1  0  0  0  0
 19 21  1  0  0  0  0
 20 22  1  0  0  0  0
 20 23  1  0  0  0  0
 21 24  1  0  0  0  0
 22 25  2  0  0  0  0
 22 26  1  0  0  0  0
 25 27  1  0  0  0  0
 26 28  2  0  0  0  0
 27 29  2  0  0  0  0
  7  8  1  0  0  0  0
 15 17  1  0  0  0  0
 23 24  1  0  0  0  0
 28 29  1  0  0  0  0
  4 30  1  0  0  0  0
  6 31  1  0  0  0  0
 10 32  1  0  0  0  0
 10 33  1  0  0  0  0
 11 34  1  0  0  0  0
 11 35  1  0  0  0  0
 12 36  1  0  0  0  0
 12 37  1  0  0  0  0
 13 38  1  0  0  0  0
 14 39  1  0  0  0  0
 14 40  1  0  0  0  0
 15 41  1  0  0  0  0
 15 42  1  0  0  0  0
 20 43  1  0  0  0  0
 21 44  1  0  0  0  0
 21 45  1  0  0  0  0
 23 46  1  0  0  0  0
 23 47  1  0  0  0  0
 24 48  1  0  0  0  0
 24 49  1  0  0  0  0
 25 50  1  0  0  0  0
 26 51  1  0  0  0  0
 28 52  1  0  0  0  0
 29 53  1  0  0  0  0
M  END
> <BIOSOLVEIT.HYDE_ESTIMATED_AFFINITY_LOWER_BOUNDARY [nM]>
278875.969477

> <BIOSOLVEIT.HYDE_ESTIMATED_AFFINITY_UPPER_BOUNDARY [nM]>
27707976.412739

> <BIOSOLVEIT.HYDE_LIGAND_EFFICIENCY range: ++, +, 0, -, -->
--

> <BIOSOLVEIT.HYDE_LIGAND_LIPOPHILIC_EFFICIENCY range: ++, +, 0, -, -->
--

> <BIOSOLVEIT.INTER_CLASH range: red, yellow, green>
green

> <BIOSOLVEIT.INTRA_CLASH range: red, yellow, green>
green

> <BIOSOLVEIT.LOGP>
4.2717

> <BIOSOLVEIT.MOLECULAR WEIGHT>
435.353

> <BIOSOLVEIT.MOLECULE_CHECKSUM>
LTE0LjU4OTY7MC41MDMwOTE=

> <BIOSOLVEIT.TORSION_QUALITY range: red, yellow, green, not rotatable>
yellow

> <BIOSOLVEIT.TPSA>
57.7

> <BIOSOLVEIT.SEESAR_FAVORITE>
favorite

> <smc_score>
0.688

> <QED_score>
0.78

> <distance>
0.677

> <SimilarityPheSA_1>
0.677

> <Smiles>
O=C(NCc1cc(Cl)c(Cl)cc1N1CCOCC1)N1CCCC1c1cccnc1

> <Similarity_SkelSpheres>
0.661

> <Cluster No>
465.0

> <QueryID>
PET-UNK-3c72d439-1

> <SimilarityPheSA>
0.677

> <Postera series>
3-aminopyridine-like

> <PDB_code>
Mpro-x11810

> <Approach>
DGM_exploratory_RL

> <ID>
20210628_968

> <SimilarityPheSA_2>
0.647

> <OPTIBRIUM.logD>
3.14138

> <OPTIBRIUM.BBB category>
-

> <OPTIBRIUM.logP>
3.42457

> <OPTIBRIUM.P-gp category>
yes

> <OPTIBRIUM.logS>
0.979947

> <OPTIBRIUM.HIA category>
+

> <OPTIBRIUM.PPB90 category>
high

> <OPTIBRIUM.2D6 affinity category>
high

> <OPTIBRIUM.hERG pIC50>
5.56266

> <OPTIBRIUM.2C9 pKi>
5.82793

> <OPTIBRIUM.BBB log([brain]:[blood])>
-0.128593

> <OPTIBRIUM.logS @ pH7.4>
0.325185

$$$$
