Compound 81_1_09
haSeeSAR  07122111353D 1   1.00000     0.00000     0
SeeSAR 11.0.2 hazemaj
 36 39  0  0  0  0            999 V2000
   12.8380    2.3689   24.0224 Cl  0  0  0  0  0  0  0  0  0  0  0  0
   12.2543    0.9783   23.0761 C   0  0  0  0  0  0  0  0  0  0  0  0
   10.8880    0.7361   22.9412 C   0  0  0  0  0  0  0  0  0  0  0  0
   13.1642    0.1372   22.4440 C   0  0  0  0  0  0  0  0  0  0  0  0
   10.4482   -0.3499   22.2297 C   0  0  0  0  0  0  0  0  0  0  0  0
    9.4610    1.1244   23.2306 C   0  0  0  0  0  0  0  0  0  0  0  0
   12.6939   -0.9419   21.7056 C   0  0  0  0  0  0  0  0  0  0  0  0
   11.3332   -1.2036   21.5928 C   0  0  0  0  0  0  0  0  0  0  0  0
    8.9774   -0.0989   22.4897 C   0  0  1  0  0  0  0  0  0  0  0  0
   13.8505   -2.0168   20.8848 Cl  0  0  0  0  0  0  0  0  0  0  0  0
    8.2261    0.3431   21.2421 C   0  0  0  0  0  0  0  0  0  0  0  0
    8.6514    1.2807   20.5673 O   0  0  0  0  0  0  0  0  0  0  0  0
    7.1159   -0.2804   20.8829 N   0  0  0  0  0  0  0  0  0  0  0  0
    6.4241    0.1266   19.7344 C   0  0  0  0  0  0  0  0  0  0  0  0
    5.3438    0.9803   19.8655 C   0  0  0  0  0  0  0  0  0  0  0  0
    6.8037   -0.3064   18.4673 C   0  0  0  0  0  0  0  0  0  0  0  0
    4.6651    1.3595   18.7255 C   0  0  0  0  0  0  0  0  0  0  0  0
    4.7064    1.6437   21.0666 C   0  0  0  0  0  0  0  0  0  0  0  0
    6.1190    0.0975   17.3855 N   0  0  0  0  0  0  0  0  0  0  0  0
    5.0605    0.9159   17.4665 C   0  0  0  0  0  0  0  0  0  0  0  0
    3.5382    2.2872   19.1398 C   0  0  0  0  0  0  0  0  0  0  0  0
    3.2948    1.9207   20.5879 C   0  0  0  0  0  0  0  0  0  0  0  0
   14.1467    0.3072   22.5202 H   0  0  0  0  0  0  0  0  0  0  0  0
    9.1814    1.9902   22.8157 H   0  0  0  0  0  0  0  0  0  0  0  0
    9.2291    1.1306   24.2034 H   0  0  0  0  0  0  0  0  0  0  0  0
   11.0026   -1.9869   21.0662 H   0  0  0  0  0  0  0  0  0  0  0  0
    8.5155   -0.7869   23.0494 H   0  0  0  0  0  0  0  0  0  0  0  0
    6.7704   -1.0420   21.4311 H   0  0  0  0  0  0  0  0  0  0  0  0
    7.5872   -0.9188   18.3626 H   0  0  0  0  0  0  0  0  0  0  0  0
    5.1796    2.4924   21.3027 H   0  0  0  0  0  0  0  0  0  0  0  0
    4.7049    1.0317   21.8574 H   0  0  0  0  0  0  0  0  0  0  0  0
    4.5679    1.2003   16.6441 H   0  0  0  0  0  0  0  0  0  0  0  0
    2.7205    2.1254   18.5876 H   0  0  0  0  0  0  0  0  0  0  0  0
    3.8138    3.2448   19.0548 H   0  0  0  0  0  0  0  0  0  0  0  0
    2.8794    2.6777   21.0922 H   0  0  0  0  0  0  0  0  0  0  0  0
    2.7156    1.1094   20.6676 H   0  0  0  0  0  0  0  0  0  0  0  0
  1  2  1  0  0  0  0
  2  3  2  0  0  0  0
  2  4  1  0  0  0  0
  3  5  1  0  0  0  0
  3  6  1  0  0  0  0
  4  7  2  0  0  0  0
  5  8  2  0  0  0  0
  5  9  1  0  0  0  0
  7 10  1  0  0  0  0
  9 11  1  0  0  0  0
 11 12  2  0  0  0  0
 11 13  1  0  0  0  0
 13 14  1  0  0  0  0
 14 15  2  0  0  0  0
 14 16  1  0  0  0  0
 15 17  1  0  0  0  0
 15 18  1  0  0  0  0
 16 19  2  0  0  0  0
 17 20  2  0  0  0  0
 17 21  1  0  0  0  0
 18 22  1  0  0  0  0
  6  9  1  0  0  0  0
  7  8  1  0  0  0  0
 19 20  1  0  0  0  0
 21 22  1  0  0  0  0
  4 23  1  0  0  0  0
  6 24  1  0  0  0  0
  6 25  1  0  0  0  0
  8 26  1  0  0  0  0
  9 27  1  0  0  0  0
 13 28  1  0  0  0  0
 16 29  1  0  0  0  0
 18 30  1  0  0  0  0
 18 31  1  0  0  0  0
 20 32  1  0  0  0  0
 21 33  1  0  0  0  0
 21 34  1  0  0  0  0
 22 35  1  0  0  0  0
 22 36  1  0  0  0  0
M  END
> <BIOSOLVEIT.HYDE_ESTIMATED_AFFINITY_LOWER_BOUNDARY [nM]>
30.704800

> <BIOSOLVEIT.HYDE_ESTIMATED_AFFINITY_UPPER_BOUNDARY [nM]>
3050.703427

> <BIOSOLVEIT.HYDE_LIGAND_EFFICIENCY range: ++, +, 0, -, -->
+

> <BIOSOLVEIT.HYDE_LIGAND_LIPOPHILIC_EFFICIENCY range: ++, +, 0, -, -->
-

> <BIOSOLVEIT.INTER_CLASH range: red, yellow, green>
red

> <BIOSOLVEIT.INTRA_CLASH range: red, yellow, green>
green

> <BIOSOLVEIT.LOGP>
4.1555

> <BIOSOLVEIT.MOLECULAR WEIGHT>
333.217

> <BIOSOLVEIT.MOLECULE_CHECKSUM>
LTM3LjE4MzE7MS42OTAxNA==

> <BIOSOLVEIT.TORSION_QUALITY range: red, yellow, green, not rotatable>
yellow

> <BIOSOLVEIT.TPSA>
41.99

> <BIOSOLVEIT.SEESAR_FAVORITE>
favorite

> <smc_score>
0.875

> <QED_score>
0.897

> <distance>
0.508

> <SimilarityPheSA_1>
0.712

> <Smiles>
O=C(Nc1cncc2c1CCC2)C1Cc2c(Cl)cc(Cl)cc21

> <Similarity_SkelSpheres>
0.788

> <Cluster No>
36.0

> <QueryID>
MAT-POS-199e2e7c-1

> <SimilarityPheSA>
0.7121

> <Postera series>
3-aminopyridine-like

> <PDB_code>
Mpro-x12000

> <Approach>
DGM_focussed_RL

> <ID>
20210618_80

> <SimilarityPheSA_2>
0.864

> <OPTIBRIUM.logD>
3.75898

> <OPTIBRIUM.BBB category>
+

> <OPTIBRIUM.logP>
3.75898

> <OPTIBRIUM.P-gp category>
no

> <OPTIBRIUM.logS>
1.4885

> <OPTIBRIUM.HIA category>
+

> <OPTIBRIUM.PPB90 category>
high

> <OPTIBRIUM.2D6 affinity category>
high

> <OPTIBRIUM.hERG pIC50>
4.54679

> <OPTIBRIUM.2C9 pKi>
5.33518

> <OPTIBRIUM.BBB log([brain]:[blood])>
0.0601904

> <OPTIBRIUM.logS @ pH7.4>
1.4885

$$$$
Compound 81_1_02
haSeeSAR  07122111353D 1   1.00000     0.00000     0
SeeSAR 11.0.2 hazemaj
 36 39  0  0  0  0            999 V2000
   12.8381    2.3691   24.0224 Cl  0  0  0  0  0  0  0  0  0  0  0  0
   12.2543    0.9785   23.0761 C   0  0  0  0  0  0  0  0  0  0  0  0
   10.8878    0.7364   22.9412 C   0  0  0  0  0  0  0  0  0  0  0  0
   13.1641    0.1373   22.4440 C   0  0  0  0  0  0  0  0  0  0  0  0
   10.4481   -0.3496   22.2298 C   0  0  0  0  0  0  0  0  0  0  0  0
    9.4611    1.1246   23.2307 C   0  0  0  0  0  0  0  0  0  0  0  0
   12.6936   -0.9418   21.7056 C   0  0  0  0  0  0  0  0  0  0  0  0
   11.3330   -1.2034   21.5929 C   0  0  0  0  0  0  0  0  0  0  0  0
    8.9773   -0.0985   22.4898 C   0  0  1  0  0  0  0  0  0  0  0  0
   13.8503   -2.0167   20.8848 Cl  0  0  0  0  0  0  0  0  0  0  0  0
    8.2259    0.3435   21.2423 C   0  0  0  0  0  0  0  0  0  0  0  0
    8.6508    1.2815   20.5678 O   0  0  0  0  0  0  0  0  0  0  0  0
    7.1159   -0.2804   20.8828 N   0  0  0  0  0  0  0  0  0  0  0  0
    6.4242    0.1266   19.7343 C   0  0  0  0  0  0  0  0  0  0  0  0
    5.3439    0.9804   19.8654 C   0  0  0  0  0  0  0  0  0  0  0  0
    6.8038   -0.3064   18.4671 C   0  0  0  0  0  0  0  0  0  0  0  0
    4.6650    1.3595   18.7254 C   0  0  0  0  0  0  0  0  0  0  0  0
    4.7064    1.6436   21.0666 C   0  0  0  0  0  0  0  0  0  0  0  0
    6.1189    0.0975   17.3854 N   0  0  0  0  0  0  0  0  0  0  0  0
    5.0605    0.9158   17.4664 C   0  0  0  0  0  0  0  0  0  0  0  0
    3.5383    2.2871   19.1399 C   0  0  0  0  0  0  0  0  0  0  0  0
    3.2948    1.9205   20.5879 C   0  0  0  0  0  0  0  0  0  0  0  0
   14.1465    0.3073   22.5202 H   0  0  0  0  0  0  0  0  0  0  0  0
    9.1814    1.9905   22.8157 H   0  0  0  0  0  0  0  0  0  0  0  0
    9.2291    1.1310   24.2034 H   0  0  0  0  0  0  0  0  0  0  0  0
   11.0024   -1.9866   21.0663 H   0  0  0  0  0  0  0  0  0  0  0  0
    8.5153   -0.7865   23.0496 H   0  0  0  0  0  0  0  0  0  0  0  0
    6.7707   -1.0423   21.4307 H   0  0  0  0  0  0  0  0  0  0  0  0
    7.5873   -0.9187   18.3625 H   0  0  0  0  0  0  0  0  0  0  0  0
    5.1797    2.4923   21.3026 H   0  0  0  0  0  0  0  0  0  0  0  0
    4.7051    1.0317   21.8574 H   0  0  0  0  0  0  0  0  0  0  0  0
    4.5677    1.2003   16.6441 H   0  0  0  0  0  0  0  0  0  0  0  0
    2.7204    2.1253   18.5876 H   0  0  0  0  0  0  0  0  0  0  0  0
    3.8137    3.2447   19.0547 H   0  0  0  0  0  0  0  0  0  0  0  0
    2.8794    2.6776   21.0921 H   0  0  0  0  0  0  0  0  0  0  0  0
    2.7157    1.1093   20.6676 H   0  0  0  0  0  0  0  0  0  0  0  0
  1  2  1  0  0  0  0
  2  3  2  0  0  0  0
  2  4  1  0  0  0  0
  3  5  1  0  0  0  0
  3  6  1  0  0  0  0
  4  7  2  0  0  0  0
  5  8  2  0  0  0  0
  5  9  1  0  0  0  0
  7 10  1  0  0  0  0
  9 11  1  0  0  0  0
 11 12  2  0  0  0  0
 11 13  1  0  0  0  0
 13 14  1  0  0  0  0
 14 15  2  0  0  0  0
 14 16  1  0  0  0  0
 15 17  1  0  0  0  0
 15 18  1  0  0  0  0
 16 19  2  0  0  0  0
 17 20  2  0  0  0  0
 17 21  1  0  0  0  0
 18 22  1  0  0  0  0
  6  9  1  0  0  0  0
  7  8  1  0  0  0  0
 19 20  1  0  0  0  0
 21 22  1  0  0  0  0
  4 23  1  0  0  0  0
  6 24  1  0  0  0  0
  6 25  1  0  0  0  0
  8 26  1  0  0  0  0
  9 27  1  0  0  0  0
 13 28  1  0  0  0  0
 16 29  1  0  0  0  0
 18 30  1  0  0  0  0
 18 31  1  0  0  0  0
 20 32  1  0  0  0  0
 21 33  1  0  0  0  0
 21 34  1  0  0  0  0
 22 35  1  0  0  0  0
 22 36  1  0  0  0  0
M  END
> <BIOSOLVEIT.HYDE_ESTIMATED_AFFINITY_LOWER_BOUNDARY [nM]>
30.750867

> <BIOSOLVEIT.HYDE_ESTIMATED_AFFINITY_UPPER_BOUNDARY [nM]>
3055.280489

> <BIOSOLVEIT.HYDE_LIGAND_EFFICIENCY range: ++, +, 0, -, -->
+

> <BIOSOLVEIT.HYDE_LIGAND_LIPOPHILIC_EFFICIENCY range: ++, +, 0, -, -->
-

> <BIOSOLVEIT.INTER_CLASH range: red, yellow, green>
red

> <BIOSOLVEIT.INTRA_CLASH range: red, yellow, green>
green

> <BIOSOLVEIT.LOGP>
4.1555

> <BIOSOLVEIT.MOLECULAR WEIGHT>
333.217

> <BIOSOLVEIT.MOLECULE_CHECKSUM>
LTM3LjE3OTQ7MS42ODk5Nw==

> <BIOSOLVEIT.TORSION_QUALITY range: red, yellow, green, not rotatable>
yellow

> <BIOSOLVEIT.TPSA>
41.99

> <BIOSOLVEIT.SEESAR_FAVORITE>
favorite

> <smc_score>
0.875

> <QED_score>
0.897

> <distance>
0.508

> <SimilarityPheSA_1>
0.712

> <Smiles>
O=C(Nc1cncc2c1CCC2)C1Cc2c(Cl)cc(Cl)cc21

> <Similarity_SkelSpheres>
0.788

> <Cluster No>
36.0

> <QueryID>
MAT-POS-199e2e7c-1

> <SimilarityPheSA>
0.7121

> <Postera series>
3-aminopyridine-like

> <PDB_code>
Mpro-x12000

> <Approach>
DGM_focussed_RL

> <ID>
20210618_80

> <SimilarityPheSA_2>
0.864

> <OPTIBRIUM.logD>
3.75898

> <OPTIBRIUM.BBB category>
+

> <OPTIBRIUM.logP>
3.75898

> <OPTIBRIUM.P-gp category>
no

> <OPTIBRIUM.logS>
1.4885

> <OPTIBRIUM.HIA category>
+

> <OPTIBRIUM.PPB90 category>
high

> <OPTIBRIUM.2D6 affinity category>
high

> <OPTIBRIUM.hERG pIC50>
4.54679

> <OPTIBRIUM.2C9 pKi>
5.33518

> <OPTIBRIUM.BBB log([brain]:[blood])>
0.0601904

> <OPTIBRIUM.logS @ pH7.4>
1.4885

$$$$
Compound 81_1_05
haSeeSAR  07122111353D 1   1.00000     0.00000     0
SeeSAR 11.0.2 hazemaj
 36 39  0  0  0  0            999 V2000
   12.8381    2.3692   24.0224 Cl  0  0  0  0  0  0  0  0  0  0  0  0
   12.2543    0.9786   23.0761 C   0  0  0  0  0  0  0  0  0  0  0  0
   10.8878    0.7364   22.9412 C   0  0  0  0  0  0  0  0  0  0  0  0
   13.1641    0.1374   22.4440 C   0  0  0  0  0  0  0  0  0  0  0  0
   10.4481   -0.3495   22.2298 C   0  0  0  0  0  0  0  0  0  0  0  0
    9.4611    1.1248   23.2308 C   0  0  0  0  0  0  0  0  0  0  0  0
   12.6936   -0.9418   21.7057 C   0  0  0  0  0  0  0  0  0  0  0  0
   11.3330   -1.2033   21.5929 C   0  0  0  0  0  0  0  0  0  0  0  0
    8.9772   -0.0984   22.4898 C   0  0  1  0  0  0  0  0  0  0  0  0
   13.8502   -2.0168   20.8849 Cl  0  0  0  0  0  0  0  0  0  0  0  0
    8.2259    0.3435   21.2423 C   0  0  0  0  0  0  0  0  0  0  0  0
    8.6509    1.2814   20.5677 O   0  0  0  0  0  0  0  0  0  0  0  0
    7.1159   -0.2802   20.8829 N   0  0  0  0  0  0  0  0  0  0  0  0
    6.4242    0.1267   19.7343 C   0  0  0  0  0  0  0  0  0  0  0  0
    5.3438    0.9804   19.8655 C   0  0  0  0  0  0  0  0  0  0  0  0
    6.8038   -0.3063   18.4672 C   0  0  0  0  0  0  0  0  0  0  0  0
    4.6651    1.3596   18.7254 C   0  0  0  0  0  0  0  0  0  0  0  0
    4.7063    1.6438   21.0665 C   0  0  0  0  0  0  0  0  0  0  0  0
    6.1190    0.0974   17.3855 N   0  0  0  0  0  0  0  0  0  0  0  0
    5.0605    0.9158   17.4664 C   0  0  0  0  0  0  0  0  0  0  0  0
    3.5382    2.2872   19.1397 C   0  0  0  0  0  0  0  0  0  0  0  0
    3.2948    1.9207   20.5878 C   0  0  0  0  0  0  0  0  0  0  0  0
   14.1466    0.3073   22.5202 H   0  0  0  0  0  0  0  0  0  0  0  0
    9.1814    1.9906   22.8158 H   0  0  0  0  0  0  0  0  0  0  0  0
    9.2290    1.1311   24.2035 H   0  0  0  0  0  0  0  0  0  0  0  0
   11.0023   -1.9865   21.0664 H   0  0  0  0  0  0  0  0  0  0  0  0
    8.5153   -0.7863   23.0497 H   0  0  0  0  0  0  0  0  0  0  0  0
    6.7705   -1.0421   21.4309 H   0  0  0  0  0  0  0  0  0  0  0  0
    7.5873   -0.9187   18.3626 H   0  0  0  0  0  0  0  0  0  0  0  0
    5.1795    2.4925   21.3026 H   0  0  0  0  0  0  0  0  0  0  0  0
    4.7049    1.0318   21.8573 H   0  0  0  0  0  0  0  0  0  0  0  0
    4.5678    1.2003   16.6441 H   0  0  0  0  0  0  0  0  0  0  0  0
    2.7204    2.1253   18.5875 H   0  0  0  0  0  0  0  0  0  0  0  0
    3.8137    3.2447   19.0547 H   0  0  0  0  0  0  0  0  0  0  0  0
    2.8792    2.6777   21.0921 H   0  0  0  0  0  0  0  0  0  0  0  0
    2.7156    1.1094   20.6675 H   0  0  0  0  0  0  0  0  0  0  0  0
  1  2  1  0  0  0  0
  2  3  2  0  0  0  0
  2  4  1  0  0  0  0
  3  5  1  0  0  0  0
  3  6  1  0  0  0  0
  4  7  2  0  0  0  0
  5  8  2  0  0  0  0
  5  9  1  0  0  0  0
  7 10  1  0  0  0  0
  9 11  1  0  0  0  0
 11 12  2  0  0  0  0
 11 13  1  0  0  0  0
 13 14  1  0  0  0  0
 14 15  2  0  0  0  0
 14 16  1  0  0  0  0
 15 17  1  0  0  0  0
 15 18  1  0  0  0  0
 16 19  2  0  0  0  0
 17 20  2  0  0  0  0
 17 21  1  0  0  0  0
 18 22  1  0  0  0  0
  6  9  1  0  0  0  0
  7  8  1  0  0  0  0
 19 20  1  0  0  0  0
 21 22  1  0  0  0  0
  4 23  1  0  0  0  0
  6 24  1  0  0  0  0
  6 25  1  0  0  0  0
  8 26  1  0  0  0  0
  9 27  1  0  0  0  0
 13 28  1  0  0  0  0
 16 29  1  0  0  0  0
 18 30  1  0  0  0  0
 18 31  1  0  0  0  0
 20 32  1  0  0  0  0
 21 33  1  0  0  0  0
 21 34  1  0  0  0  0
 22 35  1  0  0  0  0
 22 36  1  0  0  0  0
M  END
> <BIOSOLVEIT.HYDE_ESTIMATED_AFFINITY_LOWER_BOUNDARY [nM]>
30.770495

> <BIOSOLVEIT.HYDE_ESTIMATED_AFFINITY_UPPER_BOUNDARY [nM]>
3057.230641

> <BIOSOLVEIT.HYDE_LIGAND_EFFICIENCY range: ++, +, 0, -, -->
+

> <BIOSOLVEIT.HYDE_LIGAND_LIPOPHILIC_EFFICIENCY range: ++, +, 0, -, -->
-

> <BIOSOLVEIT.INTER_CLASH range: red, yellow, green>
red

> <BIOSOLVEIT.INTRA_CLASH range: red, yellow, green>
green

> <BIOSOLVEIT.LOGP>
4.1555

> <BIOSOLVEIT.MOLECULAR WEIGHT>
333.217

> <BIOSOLVEIT.MOLECULE_CHECKSUM>
LTM3LjE3Nzg7MS42ODk5

> <BIOSOLVEIT.TORSION_QUALITY range: red, yellow, green, not rotatable>
yellow

> <BIOSOLVEIT.TPSA>
41.99

> <BIOSOLVEIT.SEESAR_FAVORITE>
favorite

> <smc_score>
0.875

> <QED_score>
0.897

> <distance>
0.508

> <SimilarityPheSA_1>
0.712

> <Smiles>
O=C(Nc1cncc2c1CCC2)C1Cc2c(Cl)cc(Cl)cc21

> <Similarity_SkelSpheres>
0.788

> <Cluster No>
36.0

> <QueryID>
MAT-POS-199e2e7c-1

> <SimilarityPheSA>
0.7121

> <Postera series>
3-aminopyridine-like

> <PDB_code>
Mpro-x12000

> <Approach>
DGM_focussed_RL

> <ID>
20210618_80

> <SimilarityPheSA_2>
0.864

> <OPTIBRIUM.logD>
3.75898

> <OPTIBRIUM.BBB category>
+

> <OPTIBRIUM.logP>
3.75898

> <OPTIBRIUM.P-gp category>
no

> <OPTIBRIUM.logS>
1.4885

> <OPTIBRIUM.HIA category>
+

> <OPTIBRIUM.PPB90 category>
high

> <OPTIBRIUM.2D6 affinity category>
high

> <OPTIBRIUM.hERG pIC50>
4.54679

> <OPTIBRIUM.2C9 pKi>
5.33518

> <OPTIBRIUM.BBB log([brain]:[blood])>
0.0601904

> <OPTIBRIUM.logS @ pH7.4>
1.4885

$$$$
Compound 81_1_04
haSeeSAR  07122111353D 1   1.00000     0.00000     0
SeeSAR 11.0.2 hazemaj
 36 39  0  0  0  0            999 V2000
   12.8381    2.3688   24.0225 Cl  0  0  0  0  0  0  0  0  0  0  0  0
   12.2544    0.9783   23.0761 C   0  0  0  0  0  0  0  0  0  0  0  0
   10.8879    0.7361   22.9412 C   0  0  0  0  0  0  0  0  0  0  0  0
   13.1642    0.1371   22.4441 C   0  0  0  0  0  0  0  0  0  0  0  0
   10.4483   -0.3499   22.2297 C   0  0  0  0  0  0  0  0  0  0  0  0
    9.4611    1.1244   23.2307 C   0  0  0  0  0  0  0  0  0  0  0  0
   12.6938   -0.9419   21.7055 C   0  0  0  0  0  0  0  0  0  0  0  0
   11.3332   -1.2036   21.5927 C   0  0  0  0  0  0  0  0  0  0  0  0
    8.9774   -0.0988   22.4897 C   0  0  1  0  0  0  0  0  0  0  0  0
   13.8505   -2.0168   20.8847 Cl  0  0  0  0  0  0  0  0  0  0  0  0
    8.2260    0.3432   21.2422 C   0  0  0  0  0  0  0  0  0  0  0  0
    8.6512    1.2809   20.5674 O   0  0  0  0  0  0  0  0  0  0  0  0
    7.1159   -0.2803   20.8829 N   0  0  0  0  0  0  0  0  0  0  0  0
    6.4242    0.1266   19.7344 C   0  0  0  0  0  0  0  0  0  0  0  0
    5.3438    0.9804   19.8655 C   0  0  0  0  0  0  0  0  0  0  0  0
    6.8037   -0.3064   18.4673 C   0  0  0  0  0  0  0  0  0  0  0  0
    4.6650    1.3596   18.7255 C   0  0  0  0  0  0  0  0  0  0  0  0
    4.7064    1.6437   21.0666 C   0  0  0  0  0  0  0  0  0  0  0  0
    6.1189    0.0974   17.3855 N   0  0  0  0  0  0  0  0  0  0  0  0
    5.0605    0.9159   17.4665 C   0  0  0  0  0  0  0  0  0  0  0  0
    3.5382    2.2872   19.1398 C   0  0  0  0  0  0  0  0  0  0  0  0
    3.2948    1.9206   20.5879 C   0  0  0  0  0  0  0  0  0  0  0  0
   14.1467    0.3072   22.5202 H   0  0  0  0  0  0  0  0  0  0  0  0
    9.1815    1.9901   22.8157 H   0  0  0  0  0  0  0  0  0  0  0  0
    9.2291    1.1306   24.2034 H   0  0  0  0  0  0  0  0  0  0  0  0
   11.0025   -1.9867   21.0661 H   0  0  0  0  0  0  0  0  0  0  0  0
    8.5154   -0.7868   23.0494 H   0  0  0  0  0  0  0  0  0  0  0  0
    6.7705   -1.0421   21.4311 H   0  0  0  0  0  0  0  0  0  0  0  0
    7.5873   -0.9187   18.3626 H   0  0  0  0  0  0  0  0  0  0  0  0
    5.1796    2.4923   21.3027 H   0  0  0  0  0  0  0  0  0  0  0  0
    4.7050    1.0317   21.8574 H   0  0  0  0  0  0  0  0  0  0  0  0
    4.5678    1.2003   16.6441 H   0  0  0  0  0  0  0  0  0  0  0  0
    2.7204    2.1254   18.5876 H   0  0  0  0  0  0  0  0  0  0  0  0
    3.8137    3.2447   19.0548 H   0  0  0  0  0  0  0  0  0  0  0  0
    2.8793    2.6776   21.0921 H   0  0  0  0  0  0  0  0  0  0  0  0
    2.7156    1.1094   20.6676 H   0  0  0  0  0  0  0  0  0  0  0  0
  1  2  1  0  0  0  0
  2  3  2  0  0  0  0
  2  4  1  0  0  0  0
  3  5  1  0  0  0  0
  3  6  1  0  0  0  0
  4  7  2  0  0  0  0
  5  8  2  0  0  0  0
  5  9  1  0  0  0  0
  7 10  1  0  0  0  0
  9 11  1  0  0  0  0
 11 12  2  0  0  0  0
 11 13  1  0  0  0  0
 13 14  1  0  0  0  0
 14 15  2  0  0  0  0
 14 16  1  0  0  0  0
 15 17  1  0  0  0  0
 15 18  1  0  0  0  0
 16 19  2  0  0  0  0
 17 20  2  0  0  0  0
 17 21  1  0  0  0  0
 18 22  1  0  0  0  0
  6  9  1  0  0  0  0
  7  8  1  0  0  0  0
 19 20  1  0  0  0  0
 21 22  1  0  0  0  0
  4 23  1  0  0  0  0
  6 24  1  0  0  0  0
  6 25  1  0  0  0  0
  8 26  1  0  0  0  0
  9 27  1  0  0  0  0
 13 28  1  0  0  0  0
 16 29  1  0  0  0  0
 18 30  1  0  0  0  0
 18 31  1  0  0  0  0
 20 32  1  0  0  0  0
 21 33  1  0  0  0  0
 21 34  1  0  0  0  0
 22 35  1  0  0  0  0
 22 36  1  0  0  0  0
M  END
> <BIOSOLVEIT.HYDE_ESTIMATED_AFFINITY_LOWER_BOUNDARY [nM]>
30.785905

> <BIOSOLVEIT.HYDE_ESTIMATED_AFFINITY_UPPER_BOUNDARY [nM]>
3058.761718

> <BIOSOLVEIT.HYDE_LIGAND_EFFICIENCY range: ++, +, 0, -, -->
+

> <BIOSOLVEIT.HYDE_LIGAND_LIPOPHILIC_EFFICIENCY range: ++, +, 0, -, -->
-

> <BIOSOLVEIT.INTER_CLASH range: red, yellow, green>
red

> <BIOSOLVEIT.INTRA_CLASH range: red, yellow, green>
green

> <BIOSOLVEIT.LOGP>
4.1555

> <BIOSOLVEIT.MOLECULAR WEIGHT>
333.217

> <BIOSOLVEIT.MOLECULE_CHECKSUM>
LTM3LjE3NjY7MS42ODk4NA==

> <BIOSOLVEIT.TORSION_QUALITY range: red, yellow, green, not rotatable>
yellow

> <BIOSOLVEIT.TPSA>
41.99

> <BIOSOLVEIT.SEESAR_FAVORITE>
favorite

> <smc_score>
0.875

> <QED_score>
0.897

> <distance>
0.508

> <SimilarityPheSA_1>
0.712

> <Smiles>
O=C(Nc1cncc2c1CCC2)C1Cc2c(Cl)cc(Cl)cc21

> <Similarity_SkelSpheres>
0.788

> <Cluster No>
36.0

> <QueryID>
MAT-POS-199e2e7c-1

> <SimilarityPheSA>
0.7121

> <Postera series>
3-aminopyridine-like

> <PDB_code>
Mpro-x12000

> <Approach>
DGM_focussed_RL

> <ID>
20210618_80

> <SimilarityPheSA_2>
0.864

> <OPTIBRIUM.logD>
3.75898

> <OPTIBRIUM.BBB category>
+

> <OPTIBRIUM.logP>
3.75898

> <OPTIBRIUM.P-gp category>
no

> <OPTIBRIUM.logS>
1.4885

> <OPTIBRIUM.HIA category>
+

> <OPTIBRIUM.PPB90 category>
high

> <OPTIBRIUM.2D6 affinity category>
high

> <OPTIBRIUM.hERG pIC50>
4.54679

> <OPTIBRIUM.2C9 pKi>
5.33518

> <OPTIBRIUM.BBB log([brain]:[blood])>
0.0601904

> <OPTIBRIUM.logS @ pH7.4>
1.4885

$$$$
Compound 81_1_08
haSeeSAR  07122111353D 1   1.00000     0.00000     0
SeeSAR 11.0.2 hazemaj
 36 39  0  0  0  0            999 V2000
   12.8375    2.3724   24.0218 Cl  0  0  0  0  0  0  0  0  0  0  0  0
   12.2531    0.9814   23.0764 C   0  0  0  0  0  0  0  0  0  0  0  0
   10.8866    0.7398   22.9415 C   0  0  0  0  0  0  0  0  0  0  0  0
   13.1626    0.1394   22.4451 C   0  0  0  0  0  0  0  0  0  0  0  0
   10.4465   -0.3465   22.2308 C   0  0  0  0  0  0  0  0  0  0  0  0
    9.4599    1.1289   23.2306 C   0  0  0  0  0  0  0  0  0  0  0  0
   12.6919   -0.9400   21.7073 C   0  0  0  0  0  0  0  0  0  0  0  0
   11.3311   -1.2012   21.5946 C   0  0  0  0  0  0  0  0  0  0  0  0
    8.9757   -0.0946   22.4904 C   0  0  1  0  0  0  0  0  0  0  0  0
   13.8481   -2.0161   20.8874 Cl  0  0  0  0  0  0  0  0  0  0  0  0
    8.2247    0.3469   21.2425 C   0  0  0  0  0  0  0  0  0  0  0  0
    8.6491    1.2855   20.5686 O   0  0  0  0  0  0  0  0  0  0  0  0
    7.1157   -0.2781   20.8821 N   0  0  0  0  0  0  0  0  0  0  0  0
    6.4244    0.1283   19.7332 C   0  0  0  0  0  0  0  0  0  0  0  0
    5.3446    0.9828   19.8635 C   0  0  0  0  0  0  0  0  0  0  0  0
    6.8037   -0.3060   18.4664 C   0  0  0  0  0  0  0  0  0  0  0  0
    4.6662    1.3615   18.7231 C   0  0  0  0  0  0  0  0  0  0  0  0
    4.7075    1.6476   21.0640 C   0  0  0  0  0  0  0  0  0  0  0  0
    6.1193    0.0974   17.3842 N   0  0  0  0  0  0  0  0  0  0  0  0
    5.0614    0.9165   17.4645 C   0  0  0  0  0  0  0  0  0  0  0  0
    3.5400    2.2902   19.1366 C   0  0  0  0  0  0  0  0  0  0  0  0
    3.2962    1.9251   20.5851 C   0  0  0  0  0  0  0  0  0  0  0  0
   14.1452    0.3090   22.5212 H   0  0  0  0  0  0  0  0  0  0  0  0
    9.1807    1.9945   22.8150 H   0  0  0  0  0  0  0  0  0  0  0  0
    9.2279    1.1360   24.2033 H   0  0  0  0  0  0  0  0  0  0  0  0
   11.0001   -1.9845   21.0685 H   0  0  0  0  0  0  0  0  0  0  0  0
    8.5134   -0.7819   23.0507 H   0  0  0  0  0  0  0  0  0  0  0  0
    6.7710   -1.0407   21.4296 H   0  0  0  0  0  0  0  0  0  0  0  0
    7.5869   -0.9190   18.3623 H   0  0  0  0  0  0  0  0  0  0  0  0
    5.1814    2.4962   21.2995 H   0  0  0  0  0  0  0  0  0  0  0  0
    4.7057    1.0362   21.8554 H   0  0  0  0  0  0  0  0  0  0  0  0
    4.5689    1.2006   16.6419 H   0  0  0  0  0  0  0  0  0  0  0  0
    2.7220    2.1285   18.5845 H   0  0  0  0  0  0  0  0  0  0  0  0
    3.8161    3.2475   19.0508 H   0  0  0  0  0  0  0  0  0  0  0  0
    2.8812    2.6829   21.0886 H   0  0  0  0  0  0  0  0  0  0  0  0
    2.7165    1.1143   20.6653 H   0  0  0  0  0  0  0  0  0  0  0  0
  1  2  1  0  0  0  0
  2  3  2  0  0  0  0
  2  4  1  0  0  0  0
  3  5  1  0  0  0  0
  3  6  1  0  0  0  0
  4  7  2  0  0  0  0
  5  8  2  0  0  0  0
  5  9  1  0  0  0  0
  7 10  1  0  0  0  0
  9 11  1  0  0  0  0
 11 12  2  0  0  0  0
 11 13  1  0  0  0  0
 13 14  1  0  0  0  0
 14 15  2  0  0  0  0
 14 16  1  0  0  0  0
 15 17  1  0  0  0  0
 15 18  1  0  0  0  0
 16 19  2  0  0  0  0
 17 20  2  0  0  0  0
 17 21  1  0  0  0  0
 18 22  1  0  0  0  0
  6  9  1  0  0  0  0
  7  8  1  0  0  0  0
 19 20  1  0  0  0  0
 21 22  1  0  0  0  0
  4 23  1  0  0  0  0
  6 24  1  0  0  0  0
  6 25  1  0  0  0  0
  8 26  1  0  0  0  0
  9 27  1  0  0  0  0
 13 28  1  0  0  0  0
 16 29  1  0  0  0  0
 18 30  1  0  0  0  0
 18 31  1  0  0  0  0
 20 32  1  0  0  0  0
 21 33  1  0  0  0  0
 21 34  1  0  0  0  0
 22 35  1  0  0  0  0
 22 36  1  0  0  0  0
M  END
> <BIOSOLVEIT.HYDE_ESTIMATED_AFFINITY_LOWER_BOUNDARY [nM]>
31.791930

> <BIOSOLVEIT.HYDE_ESTIMATED_AFFINITY_UPPER_BOUNDARY [nM]>
3158.716234

> <BIOSOLVEIT.HYDE_LIGAND_EFFICIENCY range: ++, +, 0, -, -->
+

> <BIOSOLVEIT.HYDE_LIGAND_LIPOPHILIC_EFFICIENCY range: ++, +, 0, -, -->
-

> <BIOSOLVEIT.INTER_CLASH range: red, yellow, green>
red

> <BIOSOLVEIT.INTRA_CLASH range: red, yellow, green>
green

> <BIOSOLVEIT.LOGP>
4.1555

> <BIOSOLVEIT.MOLECULAR WEIGHT>
333.217

> <BIOSOLVEIT.MOLECULE_CHECKSUM>
LTM3LjA5Njg7MS42ODYyMg==

> <BIOSOLVEIT.TORSION_QUALITY range: red, yellow, green, not rotatable>
yellow

> <BIOSOLVEIT.TPSA>
41.99

> <BIOSOLVEIT.SEESAR_FAVORITE>
favorite

> <smc_score>
0.875

> <QED_score>
0.897

> <distance>
0.508

> <SimilarityPheSA_1>
0.712

> <Smiles>
O=C(Nc1cncc2c1CCC2)C1Cc2c(Cl)cc(Cl)cc21

> <Similarity_SkelSpheres>
0.788

> <Cluster No>
36.0

> <QueryID>
MAT-POS-199e2e7c-1

> <SimilarityPheSA>
0.7121

> <Postera series>
3-aminopyridine-like

> <PDB_code>
Mpro-x12000

> <Approach>
DGM_focussed_RL

> <ID>
20210618_80

> <SimilarityPheSA_2>
0.864

> <OPTIBRIUM.logD>
3.75898

> <OPTIBRIUM.BBB category>
+

> <OPTIBRIUM.logP>
3.75898

> <OPTIBRIUM.P-gp category>
no

> <OPTIBRIUM.logS>
1.4885

> <OPTIBRIUM.HIA category>
+

> <OPTIBRIUM.PPB90 category>
high

> <OPTIBRIUM.2D6 affinity category>
high

> <OPTIBRIUM.hERG pIC50>
4.54679

> <OPTIBRIUM.2C9 pKi>
5.33518

> <OPTIBRIUM.BBB log([brain]:[blood])>
0.0601904

> <OPTIBRIUM.logS @ pH7.4>
1.4885

$$$$
Compound 81_1_10
haSeeSAR  07122111353D 1   1.00000     0.00000     0
SeeSAR 11.0.2 hazemaj
 36 39  0  0  0  0            999 V2000
   12.8375    2.3724   24.0218 Cl  0  0  0  0  0  0  0  0  0  0  0  0
   12.2532    0.9814   23.0764 C   0  0  0  0  0  0  0  0  0  0  0  0
   10.8867    0.7398   22.9416 C   0  0  0  0  0  0  0  0  0  0  0  0
   13.1628    0.1393   22.4450 C   0  0  0  0  0  0  0  0  0  0  0  0
   10.4466   -0.3465   22.2308 C   0  0  0  0  0  0  0  0  0  0  0  0
    9.4600    1.1290   23.2306 C   0  0  0  0  0  0  0  0  0  0  0  0
   12.6919   -0.9401   21.7073 C   0  0  0  0  0  0  0  0  0  0  0  0
   11.3312   -1.2012   21.5946 C   0  0  0  0  0  0  0  0  0  0  0  0
    8.9758   -0.0946   22.4904 C   0  0  1  0  0  0  0  0  0  0  0  0
   13.8482   -2.0161   20.8875 Cl  0  0  0  0  0  0  0  0  0  0  0  0
    8.2248    0.3468   21.2426 C   0  0  0  0  0  0  0  0  0  0  0  0
    8.6492    1.2854   20.5685 O   0  0  0  0  0  0  0  0  0  0  0  0
    7.1159   -0.2782   20.8820 N   0  0  0  0  0  0  0  0  0  0  0  0
    6.4244    0.1282   19.7332 C   0  0  0  0  0  0  0  0  0  0  0  0
    5.3447    0.9828   19.8635 C   0  0  0  0  0  0  0  0  0  0  0  0
    6.8038   -0.3061   18.4664 C   0  0  0  0  0  0  0  0  0  0  0  0
    4.6662    1.3615   18.7232 C   0  0  0  0  0  0  0  0  0  0  0  0
    4.7077    1.6475   21.0640 C   0  0  0  0  0  0  0  0  0  0  0  0
    6.1193    0.0974   17.3842 N   0  0  0  0  0  0  0  0  0  0  0  0
    5.0614    0.9165   17.4646 C   0  0  0  0  0  0  0  0  0  0  0  0
    3.5400    2.2902   19.1367 C   0  0  0  0  0  0  0  0  0  0  0  0
    3.2963    1.9250   20.5850 C   0  0  0  0  0  0  0  0  0  0  0  0
   14.1452    0.3090   22.5213 H   0  0  0  0  0  0  0  0  0  0  0  0
    9.1808    1.9946   22.8149 H   0  0  0  0  0  0  0  0  0  0  0  0
    9.2278    1.1360   24.2032 H   0  0  0  0  0  0  0  0  0  0  0  0
   11.0003   -1.9846   21.0685 H   0  0  0  0  0  0  0  0  0  0  0  0
    8.5135   -0.7819   23.0506 H   0  0  0  0  0  0  0  0  0  0  0  0
    6.7711   -1.0407   21.4295 H   0  0  0  0  0  0  0  0  0  0  0  0
    7.5870   -0.9190   18.3622 H   0  0  0  0  0  0  0  0  0  0  0  0
    5.1814    2.4961   21.2994 H   0  0  0  0  0  0  0  0  0  0  0  0
    4.7058    1.0362   21.8554 H   0  0  0  0  0  0  0  0  0  0  0  0
    4.5689    1.2006   16.6419 H   0  0  0  0  0  0  0  0  0  0  0  0
    2.7221    2.1284   18.5846 H   0  0  0  0  0  0  0  0  0  0  0  0
    3.8161    3.2475   19.0509 H   0  0  0  0  0  0  0  0  0  0  0  0
    2.8813    2.6828   21.0887 H   0  0  0  0  0  0  0  0  0  0  0  0
    2.7165    1.1141   20.6654 H   0  0  0  0  0  0  0  0  0  0  0  0
  1  2  1  0  0  0  0
  2  3  2  0  0  0  0
  2  4  1  0  0  0  0
  3  5  1  0  0  0  0
  3  6  1  0  0  0  0
  4  7  2  0  0  0  0
  5  8  2  0  0  0  0
  5  9  1  0  0  0  0
  7 10  1  0  0  0  0
  9 11  1  0  0  0  0
 11 12  2  0  0  0  0
 11 13  1  0  0  0  0
 13 14  1  0  0  0  0
 14 15  2  0  0  0  0
 14 16  1  0  0  0  0
 15 17  1  0  0  0  0
 15 18  1  0  0  0  0
 16 19  2  0  0  0  0
 17 20  2  0  0  0  0
 17 21  1  0  0  0  0
 18 22  1  0  0  0  0
  6  9  1  0  0  0  0
  7  8  1  0  0  0  0
 19 20  1  0  0  0  0
 21 22  1  0  0  0  0
  4 23  1  0  0  0  0
  6 24  1  0  0  0  0
  6 25  1  0  0  0  0
  8 26  1  0  0  0  0
  9 27  1  0  0  0  0
 13 28  1  0  0  0  0
 16 29  1  0  0  0  0
 18 30  1  0  0  0  0
 18 31  1  0  0  0  0
 20 32  1  0  0  0  0
 21 33  1  0  0  0  0
 21 34  1  0  0  0  0
 22 35  1  0  0  0  0
 22 36  1  0  0  0  0
M  END
> <BIOSOLVEIT.HYDE_ESTIMATED_AFFINITY_LOWER_BOUNDARY [nM]>
31.805386

> <BIOSOLVEIT.HYDE_ESTIMATED_AFFINITY_UPPER_BOUNDARY [nM]>
3160.053164

> <BIOSOLVEIT.HYDE_LIGAND_EFFICIENCY range: ++, +, 0, -, -->
+

> <BIOSOLVEIT.HYDE_LIGAND_LIPOPHILIC_EFFICIENCY range: ++, +, 0, -, -->
-

> <BIOSOLVEIT.INTER_CLASH range: red, yellow, green>
red

> <BIOSOLVEIT.INTRA_CLASH range: red, yellow, green>
green

> <BIOSOLVEIT.LOGP>
4.1555

> <BIOSOLVEIT.MOLECULAR WEIGHT>
333.217

> <BIOSOLVEIT.MOLECULE_CHECKSUM>
LTM3LjA5NTg7MS42ODYxNw==

> <BIOSOLVEIT.TORSION_QUALITY range: red, yellow, green, not rotatable>
yellow

> <BIOSOLVEIT.TPSA>
41.99

> <BIOSOLVEIT.SEESAR_FAVORITE>
favorite

> <smc_score>
0.875

> <QED_score>
0.897

> <distance>
0.508

> <SimilarityPheSA_1>
0.712

> <Smiles>
O=C(Nc1cncc2c1CCC2)C1Cc2c(Cl)cc(Cl)cc21

> <Similarity_SkelSpheres>
0.788

> <Cluster No>
36.0

> <QueryID>
MAT-POS-199e2e7c-1

> <SimilarityPheSA>
0.7121

> <Postera series>
3-aminopyridine-like

> <PDB_code>
Mpro-x12000

> <Approach>
DGM_focussed_RL

> <ID>
20210618_80

> <SimilarityPheSA_2>
0.864

> <OPTIBRIUM.logD>
3.75898

> <OPTIBRIUM.BBB category>
+

> <OPTIBRIUM.logP>
3.75898

> <OPTIBRIUM.P-gp category>
no

> <OPTIBRIUM.logS>
1.4885

> <OPTIBRIUM.HIA category>
+

> <OPTIBRIUM.PPB90 category>
high

> <OPTIBRIUM.2D6 affinity category>
high

> <OPTIBRIUM.hERG pIC50>
4.54679

> <OPTIBRIUM.2C9 pKi>
5.33518

> <OPTIBRIUM.BBB log([brain]:[blood])>
0.0601904

> <OPTIBRIUM.logS @ pH7.4>
1.4885

$$$$
Compound 81_1_03
haSeeSAR  07122111353D 1   1.00000     0.00000     0
SeeSAR 11.0.2 hazemaj
 36 39  0  0  0  0            999 V2000
   12.8375    2.3724   24.0218 Cl  0  0  0  0  0  0  0  0  0  0  0  0
   12.2531    0.9814   23.0764 C   0  0  0  0  0  0  0  0  0  0  0  0
   10.8866    0.7398   22.9415 C   0  0  0  0  0  0  0  0  0  0  0  0
   13.1627    0.1393   22.4450 C   0  0  0  0  0  0  0  0  0  0  0  0
   10.4466   -0.3464   22.2308 C   0  0  0  0  0  0  0  0  0  0  0  0
    9.4600    1.1290   23.2306 C   0  0  0  0  0  0  0  0  0  0  0  0
   12.6918   -0.9400   21.7073 C   0  0  0  0  0  0  0  0  0  0  0  0
   11.3311   -1.2011   21.5946 C   0  0  0  0  0  0  0  0  0  0  0  0
    8.9757   -0.0945   22.4904 C   0  0  1  0  0  0  0  0  0  0  0  0
   13.8481   -2.0161   20.8874 Cl  0  0  0  0  0  0  0  0  0  0  0  0
    8.2247    0.3469   21.2426 C   0  0  0  0  0  0  0  0  0  0  0  0
    8.6491    1.2855   20.5686 O   0  0  0  0  0  0  0  0  0  0  0  0
    7.1158   -0.2781   20.8820 N   0  0  0  0  0  0  0  0  0  0  0  0
    6.4244    0.1283   19.7332 C   0  0  0  0  0  0  0  0  0  0  0  0
    5.3446    0.9829   19.8635 C   0  0  0  0  0  0  0  0  0  0  0  0
    6.8038   -0.3059   18.4664 C   0  0  0  0  0  0  0  0  0  0  0  0
    4.6661    1.3616   18.7232 C   0  0  0  0  0  0  0  0  0  0  0  0
    4.7075    1.6476   21.0640 C   0  0  0  0  0  0  0  0  0  0  0  0
    6.1193    0.0974   17.3842 N   0  0  0  0  0  0  0  0  0  0  0  0
    5.0614    0.9165   17.4646 C   0  0  0  0  0  0  0  0  0  0  0  0
    3.5398    2.2902   19.1367 C   0  0  0  0  0  0  0  0  0  0  0  0
    3.2961    1.9250   20.5850 C   0  0  0  0  0  0  0  0  0  0  0  0
   14.1453    0.3090   22.5211 H   0  0  0  0  0  0  0  0  0  0  0  0
    9.1807    1.9946   22.8150 H   0  0  0  0  0  0  0  0  0  0  0  0
    9.2279    1.1361   24.2032 H   0  0  0  0  0  0  0  0  0  0  0  0
   11.0001   -1.9844   21.0685 H   0  0  0  0  0  0  0  0  0  0  0  0
    8.5135   -0.7818   23.0506 H   0  0  0  0  0  0  0  0  0  0  0  0
    6.7711   -1.0406   21.4296 H   0  0  0  0  0  0  0  0  0  0  0  0
    7.5869   -0.9189   18.3623 H   0  0  0  0  0  0  0  0  0  0  0  0
    5.1813    2.4961   21.2995 H   0  0  0  0  0  0  0  0  0  0  0  0
    4.7057    1.0362   21.8553 H   0  0  0  0  0  0  0  0  0  0  0  0
    4.5688    1.2006   16.6419 H   0  0  0  0  0  0  0  0  0  0  0  0
    2.7219    2.1284   18.5845 H   0  0  0  0  0  0  0  0  0  0  0  0
    3.8159    3.2475   19.0509 H   0  0  0  0  0  0  0  0  0  0  0  0
    2.8811    2.6827   21.0887 H   0  0  0  0  0  0  0  0  0  0  0  0
    2.7164    1.1142   20.6654 H   0  0  0  0  0  0  0  0  0  0  0  0
  1  2  1  0  0  0  0
  2  3  2  0  0  0  0
  2  4  1  0  0  0  0
  3  5  1  0  0  0  0
  3  6  1  0  0  0  0
  4  7  2  0  0  0  0
  5  8  2  0  0  0  0
  5  9  1  0  0  0  0
  7 10  1  0  0  0  0
  9 11  1  0  0  0  0
 11 12  2  0  0  0  0
 11 13  1  0  0  0  0
 13 14  1  0  0  0  0
 14 15  2  0  0  0  0
 14 16  1  0  0  0  0
 15 17  1  0  0  0  0
 15 18  1  0  0  0  0
 16 19  2  0  0  0  0
 17 20  2  0  0  0  0
 17 21  1  0  0  0  0
 18 22  1  0  0  0  0
  6  9  1  0  0  0  0
  7  8  1  0  0  0  0
 19 20  1  0  0  0  0
 21 22  1  0  0  0  0
  4 23  1  0  0  0  0
  6 24  1  0  0  0  0
  6 25  1  0  0  0  0
  8 26  1  0  0  0  0
  9 27  1  0  0  0  0
 13 28  1  0  0  0  0
 16 29  1  0  0  0  0
 18 30  1  0  0  0  0
 18 31  1  0  0  0  0
 20 32  1  0  0  0  0
 21 33  1  0  0  0  0
 21 34  1  0  0  0  0
 22 35  1  0  0  0  0
 22 36  1  0  0  0  0
M  END
> <BIOSOLVEIT.HYDE_ESTIMATED_AFFINITY_LOWER_BOUNDARY [nM]>
31.832495

> <BIOSOLVEIT.HYDE_ESTIMATED_AFFINITY_UPPER_BOUNDARY [nM]>
3162.746561

> <BIOSOLVEIT.HYDE_LIGAND_EFFICIENCY range: ++, +, 0, -, -->
+

> <BIOSOLVEIT.HYDE_LIGAND_LIPOPHILIC_EFFICIENCY range: ++, +, 0, -, -->
-

> <BIOSOLVEIT.INTER_CLASH range: red, yellow, green>
red

> <BIOSOLVEIT.INTRA_CLASH range: red, yellow, green>
green

> <BIOSOLVEIT.LOGP>
4.1555

> <BIOSOLVEIT.MOLECULAR WEIGHT>
333.217

> <BIOSOLVEIT.MOLECULE_CHECKSUM>
LTM3LjA5Mzc7MS42ODYwOA==

> <BIOSOLVEIT.TORSION_QUALITY range: red, yellow, green, not rotatable>
yellow

> <BIOSOLVEIT.TPSA>
41.99

> <BIOSOLVEIT.SEESAR_FAVORITE>
favorite

> <smc_score>
0.875

> <QED_score>
0.897

> <distance>
0.508

> <SimilarityPheSA_1>
0.712

> <Smiles>
O=C(Nc1cncc2c1CCC2)C1Cc2c(Cl)cc(Cl)cc21

> <Similarity_SkelSpheres>
0.788

> <Cluster No>
36.0

> <QueryID>
MAT-POS-199e2e7c-1

> <SimilarityPheSA>
0.7121

> <Postera series>
3-aminopyridine-like

> <PDB_code>
Mpro-x12000

> <Approach>
DGM_focussed_RL

> <ID>
20210618_80

> <SimilarityPheSA_2>
0.864

> <OPTIBRIUM.logD>
3.75898

> <OPTIBRIUM.BBB category>
+

> <OPTIBRIUM.logP>
3.75898

> <OPTIBRIUM.P-gp category>
no

> <OPTIBRIUM.logS>
1.4885

> <OPTIBRIUM.HIA category>
+

> <OPTIBRIUM.PPB90 category>
high

> <OPTIBRIUM.2D6 affinity category>
high

> <OPTIBRIUM.hERG pIC50>
4.54679

> <OPTIBRIUM.2C9 pKi>
5.33518

> <OPTIBRIUM.BBB log([brain]:[blood])>
0.0601904

> <OPTIBRIUM.logS @ pH7.4>
1.4885

$$$$
Compound 81_1_07
haSeeSAR  07122111353D 1   1.00000     0.00000     0
SeeSAR 11.0.2 hazemaj
 36 39  0  0  0  0            999 V2000
   12.8375    2.3724   24.0218 Cl  0  0  0  0  0  0  0  0  0  0  0  0
   12.2531    0.9814   23.0764 C   0  0  0  0  0  0  0  0  0  0  0  0
   10.8867    0.7397   22.9415 C   0  0  0  0  0  0  0  0  0  0  0  0
   13.1628    0.1393   22.4450 C   0  0  0  0  0  0  0  0  0  0  0  0
   10.4466   -0.3465   22.2308 C   0  0  0  0  0  0  0  0  0  0  0  0
    9.4600    1.1289   23.2305 C   0  0  0  0  0  0  0  0  0  0  0  0
   12.6919   -0.9401   21.7073 C   0  0  0  0  0  0  0  0  0  0  0  0
   11.3312   -1.2011   21.5945 C   0  0  0  0  0  0  0  0  0  0  0  0
    8.9758   -0.0946   22.4904 C   0  0  1  0  0  0  0  0  0  0  0  0
   13.8482   -2.0161   20.8875 Cl  0  0  0  0  0  0  0  0  0  0  0  0
    8.2248    0.3468   21.2425 C   0  0  0  0  0  0  0  0  0  0  0  0
    8.6493    1.2853   20.5684 O   0  0  0  0  0  0  0  0  0  0  0  0
    7.1157   -0.2781   20.8821 N   0  0  0  0  0  0  0  0  0  0  0  0
    6.4243    0.1283   19.7332 C   0  0  0  0  0  0  0  0  0  0  0  0
    5.3446    0.9829   19.8635 C   0  0  0  0  0  0  0  0  0  0  0  0
    6.8037   -0.3059   18.4665 C   0  0  0  0  0  0  0  0  0  0  0  0
    4.6662    1.3615   18.7231 C   0  0  0  0  0  0  0  0  0  0  0  0
    4.7075    1.6476   21.0640 C   0  0  0  0  0  0  0  0  0  0  0  0
    6.1193    0.0973   17.3843 N   0  0  0  0  0  0  0  0  0  0  0  0
    5.0614    0.9165   17.4645 C   0  0  0  0  0  0  0  0  0  0  0  0
    3.5399    2.2903   19.1366 C   0  0  0  0  0  0  0  0  0  0  0  0
    3.2961    1.9251   20.5849 C   0  0  0  0  0  0  0  0  0  0  0  0
   14.1453    0.3090   22.5213 H   0  0  0  0  0  0  0  0  0  0  0  0
    9.1808    1.9945   22.8149 H   0  0  0  0  0  0  0  0  0  0  0  0
    9.2279    1.1360   24.2032 H   0  0  0  0  0  0  0  0  0  0  0  0
   11.0002   -1.9846   21.0685 H   0  0  0  0  0  0  0  0  0  0  0  0
    8.5134   -0.7819   23.0506 H   0  0  0  0  0  0  0  0  0  0  0  0
    6.7709   -1.0405   21.4297 H   0  0  0  0  0  0  0  0  0  0  0  0
    7.5870   -0.9190   18.3623 H   0  0  0  0  0  0  0  0  0  0  0  0
    5.1812    2.4962   21.2994 H   0  0  0  0  0  0  0  0  0  0  0  0
    4.7056    1.0363   21.8553 H   0  0  0  0  0  0  0  0  0  0  0  0
    4.5689    1.2005   16.6418 H   0  0  0  0  0  0  0  0  0  0  0  0
    2.7220    2.1284   18.5845 H   0  0  0  0  0  0  0  0  0  0  0  0
    3.8160    3.2475   19.0508 H   0  0  0  0  0  0  0  0  0  0  0  0
    2.8811    2.6828   21.0885 H   0  0  0  0  0  0  0  0  0  0  0  0
    2.7164    1.1142   20.6653 H   0  0  0  0  0  0  0  0  0  0  0  0
  1  2  1  0  0  0  0
  2  3  2  0  0  0  0
  2  4  1  0  0  0  0
  3  5  1  0  0  0  0
  3  6  1  0  0  0  0
  4  7  2  0  0  0  0
  5  8  2  0  0  0  0
  5  9  1  0  0  0  0
  7 10  1  0  0  0  0
  9 11  1  0  0  0  0
 11 12  2  0  0  0  0
 11 13  1  0  0  0  0
 13 14  1  0  0  0  0
 14 15  2  0  0  0  0
 14 16  1  0  0  0  0
 15 17  1  0  0  0  0
 15 18  1  0  0  0  0
 16 19  2  0  0  0  0
 17 20  2  0  0  0  0
 17 21  1  0  0  0  0
 18 22  1  0  0  0  0
  6  9  1  0  0  0  0
  7  8  1  0  0  0  0
 19 20  1  0  0  0  0
 21 22  1  0  0  0  0
  4 23  1  0  0  0  0
  6 24  1  0  0  0  0
  6 25  1  0  0  0  0
  8 26  1  0  0  0  0
  9 27  1  0  0  0  0
 13 28  1  0  0  0  0
 16 29  1  0  0  0  0
 18 30  1  0  0  0  0
 18 31  1  0  0  0  0
 20 32  1  0  0  0  0
 21 33  1  0  0  0  0
 21 34  1  0  0  0  0
 22 35  1  0  0  0  0
 22 36  1  0  0  0  0
M  END
> <BIOSOLVEIT.HYDE_ESTIMATED_AFFINITY_LOWER_BOUNDARY [nM]>
31.851233

> <BIOSOLVEIT.HYDE_ESTIMATED_AFFINITY_UPPER_BOUNDARY [nM]>
3164.608307

> <BIOSOLVEIT.HYDE_LIGAND_EFFICIENCY range: ++, +, 0, -, -->
+

> <BIOSOLVEIT.HYDE_LIGAND_LIPOPHILIC_EFFICIENCY range: ++, +, 0, -, -->
-

> <BIOSOLVEIT.INTER_CLASH range: red, yellow, green>
red

> <BIOSOLVEIT.INTRA_CLASH range: red, yellow, green>
green

> <BIOSOLVEIT.LOGP>
4.1555

> <BIOSOLVEIT.MOLECULAR WEIGHT>
333.217

> <BIOSOLVEIT.MOLECULE_CHECKSUM>
LTM3LjA5MjI7MS42ODYwMQ==

> <BIOSOLVEIT.TORSION_QUALITY range: red, yellow, green, not rotatable>
yellow

> <BIOSOLVEIT.TPSA>
41.99

> <BIOSOLVEIT.SEESAR_FAVORITE>
favorite

> <smc_score>
0.875

> <QED_score>
0.897

> <distance>
0.508

> <SimilarityPheSA_1>
0.712

> <Smiles>
O=C(Nc1cncc2c1CCC2)C1Cc2c(Cl)cc(Cl)cc21

> <Similarity_SkelSpheres>
0.788

> <Cluster No>
36.0

> <QueryID>
MAT-POS-199e2e7c-1

> <SimilarityPheSA>
0.7121

> <Postera series>
3-aminopyridine-like

> <PDB_code>
Mpro-x12000

> <Approach>
DGM_focussed_RL

> <ID>
20210618_80

> <SimilarityPheSA_2>
0.864

> <OPTIBRIUM.logD>
3.75898

> <OPTIBRIUM.BBB category>
+

> <OPTIBRIUM.logP>
3.75898

> <OPTIBRIUM.P-gp category>
no

> <OPTIBRIUM.logS>
1.4885

> <OPTIBRIUM.HIA category>
+

> <OPTIBRIUM.PPB90 category>
high

> <OPTIBRIUM.2D6 affinity category>
high

> <OPTIBRIUM.hERG pIC50>
4.54679

> <OPTIBRIUM.2C9 pKi>
5.33518

> <OPTIBRIUM.BBB log([brain]:[blood])>
0.0601904

> <OPTIBRIUM.logS @ pH7.4>
1.4885

$$$$
Compound 81_1_01
haSeeSAR  07122111353D 1   1.00000     0.00000     0
SeeSAR 11.0.2 hazemaj
 36 39  0  0  0  0            999 V2000
   12.8376    2.3726   24.0218 Cl  0  0  0  0  0  0  0  0  0  0  0  0
   12.2532    0.9816   23.0764 C   0  0  0  0  0  0  0  0  0  0  0  0
   10.8866    0.7401   22.9415 C   0  0  0  0  0  0  0  0  0  0  0  0
   13.1626    0.1395   22.4449 C   0  0  0  0  0  0  0  0  0  0  0  0
   10.4464   -0.3463   22.2308 C   0  0  0  0  0  0  0  0  0  0  0  0
    9.4600    1.1292   23.2306 C   0  0  0  0  0  0  0  0  0  0  0  0
   12.6917   -0.9399   21.7073 C   0  0  0  0  0  0  0  0  0  0  0  0
   11.3310   -1.2009   21.5947 C   0  0  0  0  0  0  0  0  0  0  0  0
    8.9757   -0.0943   22.4904 C   0  0  1  0  0  0  0  0  0  0  0  0
   13.8480   -2.0161   20.8875 Cl  0  0  0  0  0  0  0  0  0  0  0  0
    8.2247    0.3471   21.2426 C   0  0  0  0  0  0  0  0  0  0  0  0
    8.6488    1.2860   20.5688 O   0  0  0  0  0  0  0  0  0  0  0  0
    7.1160   -0.2782   20.8819 N   0  0  0  0  0  0  0  0  0  0  0  0
    6.4245    0.1282   19.7330 C   0  0  0  0  0  0  0  0  0  0  0  0
    5.3447    0.9828   19.8634 C   0  0  0  0  0  0  0  0  0  0  0  0
    6.8038   -0.3060   18.4663 C   0  0  0  0  0  0  0  0  0  0  0  0
    4.6662    1.3614   18.7231 C   0  0  0  0  0  0  0  0  0  0  0  0
    4.7077    1.6475   21.0639 C   0  0  0  0  0  0  0  0  0  0  0  0
    6.1193    0.0973   17.3841 N   0  0  0  0  0  0  0  0  0  0  0  0
    5.0614    0.9164   17.4645 C   0  0  0  0  0  0  0  0  0  0  0  0
    3.5400    2.2902   19.1367 C   0  0  0  0  0  0  0  0  0  0  0  0
    3.2963    1.9250   20.5850 C   0  0  0  0  0  0  0  0  0  0  0  0
   14.1452    0.3091   22.5211 H   0  0  0  0  0  0  0  0  0  0  0  0
    9.1808    1.9948   22.8150 H   0  0  0  0  0  0  0  0  0  0  0  0
    9.2279    1.1364   24.2032 H   0  0  0  0  0  0  0  0  0  0  0  0
   11.0000   -1.9843   21.0687 H   0  0  0  0  0  0  0  0  0  0  0  0
    8.5134   -0.7816   23.0508 H   0  0  0  0  0  0  0  0  0  0  0  0
    6.7714   -1.0409   21.4293 H   0  0  0  0  0  0  0  0  0  0  0  0
    7.5870   -0.9191   18.3621 H   0  0  0  0  0  0  0  0  0  0  0  0
    5.1814    2.4961   21.2994 H   0  0  0  0  0  0  0  0  0  0  0  0
    4.7058    1.0362   21.8553 H   0  0  0  0  0  0  0  0  0  0  0  0
    4.5689    1.2005   16.6419 H   0  0  0  0  0  0  0  0  0  0  0  0
    2.7220    2.1284   18.5845 H   0  0  0  0  0  0  0  0  0  0  0  0
    3.8161    3.2475   19.0508 H   0  0  0  0  0  0  0  0  0  0  0  0
    2.8813    2.6827   21.0886 H   0  0  0  0  0  0  0  0  0  0  0  0
    2.7165    1.1141   20.6654 H   0  0  0  0  0  0  0  0  0  0  0  0
  1  2  1  0  0  0  0
  2  3  2  0  0  0  0
  2  4  1  0  0  0  0
  3  5  1  0  0  0  0
  3  6  1  0  0  0  0
  4  7  2  0  0  0  0
  5  8  2  0  0  0  0
  5  9  1  0  0  0  0
  7 10  1  0  0  0  0
  9 11  1  0  0  0  0
 11 12  2  0  0  0  0
 11 13  1  0  0  0  0
 13 14  1  0  0  0  0
 14 15  2  0  0  0  0
 14 16  1  0  0  0  0
 15 17  1  0  0  0  0
 15 18  1  0  0  0  0
 16 19  2  0  0  0  0
 17 20  2  0  0  0  0
 17 21  1  0  0  0  0
 18 22  1  0  0  0  0
  6  9  1  0  0  0  0
  7  8  1  0  0  0  0
 19 20  1  0  0  0  0
 21 22  1  0  0  0  0
  4 23  1  0  0  0  0
  6 24  1  0  0  0  0
  6 25  1  0  0  0  0
  8 26  1  0  0  0  0
  9 27  1  0  0  0  0
 13 28  1  0  0  0  0
 16 29  1  0  0  0  0
 18 30  1  0  0  0  0
 18 31  1  0  0  0  0
 20 32  1  0  0  0  0
 21 33  1  0  0  0  0
 21 34  1  0  0  0  0
 22 35  1  0  0  0  0
 22 36  1  0  0  0  0
M  END
> <BIOSOLVEIT.HYDE_ESTIMATED_AFFINITY_LOWER_BOUNDARY [nM]>
31.857997

> <BIOSOLVEIT.HYDE_ESTIMATED_AFFINITY_UPPER_BOUNDARY [nM]>
3165.280319

> <BIOSOLVEIT.HYDE_LIGAND_EFFICIENCY range: ++, +, 0, -, -->
+

> <BIOSOLVEIT.HYDE_LIGAND_LIPOPHILIC_EFFICIENCY range: ++, +, 0, -, -->
-

> <BIOSOLVEIT.INTER_CLASH range: red, yellow, green>
red

> <BIOSOLVEIT.INTRA_CLASH range: red, yellow, green>
green

> <BIOSOLVEIT.LOGP>
4.1555

> <BIOSOLVEIT.MOLECULAR WEIGHT>
333.217

> <BIOSOLVEIT.MOLECULE_CHECKSUM>
LTM3LjA5MTc7MS42ODU5OQ==

> <BIOSOLVEIT.TORSION_QUALITY range: red, yellow, green, not rotatable>
yellow

> <BIOSOLVEIT.TPSA>
41.99

> <BIOSOLVEIT.SEESAR_FAVORITE>
favorite

> <smc_score>
0.875

> <QED_score>
0.897

> <distance>
0.508

> <SimilarityPheSA_1>
0.712

> <Smiles>
O=C(Nc1cncc2c1CCC2)C1Cc2c(Cl)cc(Cl)cc21

> <Similarity_SkelSpheres>
0.788

> <Cluster No>
36.0

> <QueryID>
MAT-POS-199e2e7c-1

> <SimilarityPheSA>
0.7121

> <Postera series>
3-aminopyridine-like

> <PDB_code>
Mpro-x12000

> <Approach>
DGM_focussed_RL

> <ID>
20210618_80

> <SimilarityPheSA_2>
0.864

> <OPTIBRIUM.logD>
3.75898

> <OPTIBRIUM.BBB category>
+

> <OPTIBRIUM.logP>
3.75898

> <OPTIBRIUM.P-gp category>
no

> <OPTIBRIUM.logS>
1.4885

> <OPTIBRIUM.HIA category>
+

> <OPTIBRIUM.PPB90 category>
high

> <OPTIBRIUM.2D6 affinity category>
high

> <OPTIBRIUM.hERG pIC50>
4.54679

> <OPTIBRIUM.2C9 pKi>
5.33518

> <OPTIBRIUM.BBB log([brain]:[blood])>
0.0601904

> <OPTIBRIUM.logS @ pH7.4>
1.4885

$$$$
Compound 81_1_06
haSeeSAR  07122111353D 1   1.00000     0.00000     0
SeeSAR 11.0.2 hazemaj
 36 39  0  0  0  0            999 V2000
   12.8400    2.3602   24.0233 Cl  0  0  0  0  0  0  0  0  0  0  0  0
   12.2599    0.9688   23.0759 C   0  0  0  0  0  0  0  0  0  0  0  0
   10.8940    0.7233   22.9406 C   0  0  0  0  0  0  0  0  0  0  0  0
   13.1719    0.1302   22.4433 C   0  0  0  0  0  0  0  0  0  0  0  0
   10.4572   -0.3632   22.2282 C   0  0  0  0  0  0  0  0  0  0  0  0
    9.4662    1.1078   23.2301 C   0  0  0  0  0  0  0  0  0  0  0  0
   12.7042   -0.9495   21.7040 C   0  0  0  0  0  0  0  0  0  0  0  0
   11.3443   -1.2144   21.5909 C   0  0  0  0  0  0  0  0  0  0  0  0
    8.9856   -0.1161   22.4882 C   0  0  1  0  0  0  0  0  0  0  0  0
   13.8637   -2.0209   20.8828 Cl  0  0  0  0  0  0  0  0  0  0  0  0
    8.2334    0.3249   21.2409 C   0  0  0  0  0  0  0  0  0  0  0  0
    8.6571    1.2633   20.5660 O   0  0  0  0  0  0  0  0  0  0  0  0
    7.1241   -0.3003   20.8818 N   0  0  0  0  0  0  0  0  0  0  0  0
    6.4315    0.1057   19.7334 C   0  0  0  0  0  0  0  0  0  0  0  0
    5.3546    0.9639   19.8641 C   0  0  0  0  0  0  0  0  0  0  0  0
    6.8069   -0.3325   18.4668 C   0  0  0  0  0  0  0  0  0  0  0  0
    4.6750    1.3421   18.7243 C   0  0  0  0  0  0  0  0  0  0  0  0
    4.7221    1.6334   21.0644 C   0  0  0  0  0  0  0  0  0  0  0  0
    6.1215    0.0705   17.3852 N   0  0  0  0  0  0  0  0  0  0  0  0
    5.0662    0.8931   17.4658 C   0  0  0  0  0  0  0  0  0  0  0  0
    3.5525    2.2753   19.1381 C   0  0  0  0  0  0  0  0  0  0  0  0
    3.3107    1.9141   20.5877 C   0  0  0  0  0  0  0  0  0  0  0  0
   14.1539    0.3027   22.5198 H   0  0  0  0  0  0  0  0  0  0  0  0
    9.1844    1.9732   22.8156 H   0  0  0  0  0  0  0  0  0  0  0  0
    9.2341    1.1129   24.2028 H   0  0  0  0  0  0  0  0  0  0  0  0
   11.0157   -1.9979   21.0637 H   0  0  0  0  0  0  0  0  0  0  0  0
    8.5253   -0.8055   23.0475 H   0  0  0  0  0  0  0  0  0  0  0  0
    6.7799   -1.0625   21.4299 H   0  0  0  0  0  0  0  0  0  0  0  0
    7.5880   -0.9482   18.3625 H   0  0  0  0  0  0  0  0  0  0  0  0
    5.1991    2.4810   21.2969 H   0  0  0  0  0  0  0  0  0  0  0  0
    4.7201    1.0238   21.8571 H   0  0  0  0  0  0  0  0  0  0  0  0
    4.5729    1.1769   16.6436 H   0  0  0  0  0  0  0  0  0  0  0  0
    2.7330    2.1148   18.5880 H   0  0  0  0  0  0  0  0  0  0  0  0
    3.8314    3.2315   19.0495 H   0  0  0  0  0  0  0  0  0  0  0  0
    2.8990    2.6743   21.0904 H   0  0  0  0  0  0  0  0  0  0  0  0
    2.7286    1.1053   20.6710 H   0  0  0  0  0  0  0  0  0  0  0  0
  1  2  1  0  0  0  0
  2  3  2  0  0  0  0
  2  4  1  0  0  0  0
  3  5  1  0  0  0  0
  3  6  1  0  0  0  0
  4  7  2  0  0  0  0
  5  8  2  0  0  0  0
  5  9  1  0  0  0  0
  7 10  1  0  0  0  0
  9 11  1  0  0  0  0
 11 12  2  0  0  0  0
 11 13  1  0  0  0  0
 13 14  1  0  0  0  0
 14 15  2  0  0  0  0
 14 16  1  0  0  0  0
 15 17  1  0  0  0  0
 15 18  1  0  0  0  0
 16 19  2  0  0  0  0
 17 20  2  0  0  0  0
 17 21  1  0  0  0  0
 18 22  1  0  0  0  0
  6  9  1  0  0  0  0
  7  8  1  0  0  0  0
 19 20  1  0  0  0  0
 21 22  1  0  0  0  0
  4 23  1  0  0  0  0
  6 24  1  0  0  0  0
  6 25  1  0  0  0  0
  8 26  1  0  0  0  0
  9 27  1  0  0  0  0
 13 28  1  0  0  0  0
 16 29  1  0  0  0  0
 18 30  1  0  0  0  0
 18 31  1  0  0  0  0
 20 32  1  0  0  0  0
 21 33  1  0  0  0  0
 21 34  1  0  0  0  0
 22 35  1  0  0  0  0
 22 36  1  0  0  0  0
M  END
> <BIOSOLVEIT.HYDE_ESTIMATED_AFFINITY_LOWER_BOUNDARY [nM]>
33.368064

> <BIOSOLVEIT.HYDE_ESTIMATED_AFFINITY_UPPER_BOUNDARY [nM]>
3315.314468

> <BIOSOLVEIT.HYDE_LIGAND_EFFICIENCY range: ++, +, 0, -, -->
+

> <BIOSOLVEIT.HYDE_LIGAND_LIPOPHILIC_EFFICIENCY range: ++, +, 0, -, -->
-

> <BIOSOLVEIT.INTER_CLASH range: red, yellow, green>
red

> <BIOSOLVEIT.INTRA_CLASH range: red, yellow, green>
green

> <BIOSOLVEIT.LOGP>
4.1555

> <BIOSOLVEIT.MOLECULAR WEIGHT>
333.217

> <BIOSOLVEIT.MOLECULE_CHECKSUM>
LTM2Ljk3Njk7MS42ODA3Nw==

> <BIOSOLVEIT.TORSION_QUALITY range: red, yellow, green, not rotatable>
yellow

> <BIOSOLVEIT.TPSA>
41.99

> <BIOSOLVEIT.SEESAR_FAVORITE>
favorite

> <smc_score>
0.875

> <QED_score>
0.897

> <distance>
0.508

> <SimilarityPheSA_1>
0.712

> <Smiles>
O=C(Nc1cncc2c1CCC2)C1Cc2c(Cl)cc(Cl)cc21

> <Similarity_SkelSpheres>
0.788

> <Cluster No>
36.0

> <QueryID>
MAT-POS-199e2e7c-1

> <SimilarityPheSA>
0.7121

> <Postera series>
3-aminopyridine-like

> <PDB_code>
Mpro-x12000

> <Approach>
DGM_focussed_RL

> <ID>
20210618_80

> <SimilarityPheSA_2>
0.864

> <OPTIBRIUM.logD>
3.75898

> <OPTIBRIUM.BBB category>
+

> <OPTIBRIUM.logP>
3.75898

> <OPTIBRIUM.P-gp category>
no

> <OPTIBRIUM.logS>
1.4885

> <OPTIBRIUM.HIA category>
+

> <OPTIBRIUM.PPB90 category>
high

> <OPTIBRIUM.2D6 affinity category>
high

> <OPTIBRIUM.hERG pIC50>
4.54679

> <OPTIBRIUM.2C9 pKi>
5.33518

> <OPTIBRIUM.BBB log([brain]:[blood])>
0.0601904

> <OPTIBRIUM.logS @ pH7.4>
1.4885

$$$$
Compound 760_1_03
haSeeSAR  07122111353D 1   1.00000     0.00000     0
SeeSAR 11.0.2 hazemaj
 48 50  0  0  0  0            999 V2000
   13.4931    1.1262   23.0913 Cl  0  0  0  0  0  0  0  0  0  0  0  0
   11.9837    0.2555   22.7291 C   0  0  0  0  0  0  0  0  0  0  0  0
   12.0393   -1.0268   22.1930 C   0  0  0  0  0  0  0  0  0  0  0  0
   10.7573    0.8597   22.9836 C   0  0  0  0  0  0  0  0  0  0  0  0
   13.6154   -1.7897   21.8725 Cl  0  0  0  0  0  0  0  0  0  0  0  0
   10.8716   -1.7244   21.9016 C   0  0  0  0  0  0  0  0  0  0  0  0
    9.5924    0.1588   22.6913 C   0  0  0  0  0  0  0  0  0  0  0  0
    9.6425   -1.1234   22.1544 C   0  0  0  0  0  0  0  0  0  0  0  0
    8.2494    0.8154   22.9675 C   0  0  0  0  0  0  0  0  0  0  0  0
    7.7129    1.4305   21.6852 C   0  0  0  0  0  0  0  0  0  0  0  0
    8.4673    2.0556   20.9398 O   0  0  0  0  0  0  0  0  0  0  0  0
    6.3604    1.2859   21.3516 N   0  0  0  0  0  0  0  0  0  0  0  0
    5.5408    2.3557   20.7716 C   0  0  1  0  0  0  0  0  0  0  0  0
    5.5987    0.0457   21.5373 C   0  0  0  0  0  0  0  0  0  0  0  0
    4.5164    1.6486   19.9157 C   0  0  0  0  0  0  0  0  0  0  0  0
    4.8082    3.1093   21.8700 C   0  0  0  0  0  0  0  0  0  0  0  0
    5.5402   -0.5589   20.1485 C   0  0  0  0  0  0  0  0  0  0  0  0
    5.2675    0.5709   19.2621 N   0  0  0  0  0  0  0  0  0  0  0  0
    5.4457    4.4249   22.0736 N   0  0  0  0  0  0  0  0  0  0  0  0
    5.6977    0.6212   17.9308 C   0  0  0  0  0  0  0  0  0  0  0  0
    4.8278    5.6170   22.4493 C   0  0  0  0  0  0  0  0  0  0  0  0
    6.8714    4.7109   21.9357 C   0  0  0  0  0  0  0  0  0  0  0  0
    6.2326   -0.3624   17.4192 O   0  0  0  0  0  0  0  0  0  0  0  0
    5.5043    1.8904   17.1171 C   0  0  0  0  0  0  0  0  0  0  0  0
    3.6543    5.7187   22.7603 O   0  0  0  0  0  0  0  0  0  0  0  0
    5.6806    6.6521   22.4039 O   0  0  0  0  0  0  0  0  0  0  0  0
    6.9053    6.2260   21.8370 C   0  0  0  0  0  0  0  0  0  0  0  0
   10.7139    1.7812   23.3695 H   0  0  0  0  0  0  0  0  0  0  0  0
   10.9151   -2.6458   21.5155 H   0  0  0  0  0  0  0  0  0  0  0  0
    8.7949   -1.6134   21.9500 H   0  0  0  0  0  0  0  0  0  0  0  0
    8.3634    1.5300   23.6577 H   0  0  0  0  0  0  0  0  0  0  0  0
    7.6049    0.1282   23.3026 H   0  0  0  0  0  0  0  0  0  0  0  0
    6.0993    2.9770   20.2222 H   0  0  0  0  0  0  0  0  0  0  0  0
    4.6794    0.2407   21.8793 H   0  0  0  0  0  0  0  0  0  0  0  0
    6.0675   -0.5678   22.1728 H   0  0  0  0  0  0  0  0  0  0  0  0
    4.1308    2.2733   19.2366 H   0  0  0  0  0  0  0  0  0  0  0  0
    3.7806    1.2750   20.4805 H   0  0  0  0  0  0  0  0  0  0  0  0
    4.8498    2.5836   22.7197 H   0  0  0  0  0  0  0  0  0  0  0  0
    3.8528    3.2393   21.6050 H   0  0  0  0  0  0  0  0  0  0  0  0
    4.8080   -1.2376   20.0900 H   0  0  0  0  0  0  0  0  0  0  0  0
    6.4123   -0.9884   19.9140 H   0  0  0  0  0  0  0  0  0  0  0  0
    7.2450    4.2881   21.1101 H   0  0  0  0  0  0  0  0  0  0  0  0
    7.3814    4.3908   22.7340 H   0  0  0  0  0  0  0  0  0  0  0  0
    5.8657    1.7534   16.1948 H   0  0  0  0  0  0  0  0  0  0  0  0
    4.5295    2.1072   17.0643 H   0  0  0  0  0  0  0  0  0  0  0  0
    5.9905    2.6456   17.5567 H   0  0  0  0  0  0  0  0  0  0  0  0
    6.9712    6.5156   20.8822 H   0  0  0  0  0  0  0  0  0  0  0  0
    7.6791    6.5954   22.3515 H   0  0  0  0  0  0  0  0  0  0  0  0
  1  2  1  0  0  0  0
  2  3  2  0  0  0  0
  2  4  1  0  0  0  0
  3  5  1  0  0  0  0
  3  6  1  0  0  0  0
  4  7  2  0  0  0  0
  6  8  2  0  0  0  0
  7  9  1  0  0  0  0
  9 10  1  0  0  0  0
 10 11  2  0  0  0  0
 10 12  1  0  0  0  0
 12 13  1  0  0  0  0
 12 14  1  0  0  0  0
 13 15  1  0  0  0  0
 13 16  1  0  0  0  0
 14 17  1  0  0  0  0
 15 18  1  0  0  0  0
 16 19  1  0  0  0  0
 18 20  1  0  0  0  0
 19 21  1  0  0  0  0
 19 22  1  0  0  0  0
 20 23  2  0  0  0  0
 20 24  1  0  0  0  0
 21 25  2  0  0  0  0
 21 26  1  0  0  0  0
 22 27  1  0  0  0  0
  7  8  1  0  0  0  0
 17 18  1  0  0  0  0
 26 27  1  0  0  0  0
  4 28  1  0  0  0  0
  6 29  1  0  0  0  0
  8 30  1  0  0  0  0
  9 31  1  0  0  0  0
  9 32  1  0  0  0  0
 13 33  1  0  0  0  0
 14 34  1  0  0  0  0
 14 35  1  0  0  0  0
 15 36  1  0  0  0  0
 15 37  1  0  0  0  0
 16 38  1  0  0  0  0
 16 39  1  0  0  0  0
 17 40  1  0  0  0  0
 17 41  1  0  0  0  0
 22 42  1  0  0  0  0
 22 43  1  0  0  0  0
 24 44  1  0  0  0  0
 24 45  1  0  0  0  0
 24 46  1  0  0  0  0
 27 47  1  0  0  0  0
 27 48  1  0  0  0  0
M  END
> <BIOSOLVEIT.HYDE_ESTIMATED_AFFINITY_LOWER_BOUNDARY [nM]>
49.105294

> <BIOSOLVEIT.HYDE_ESTIMATED_AFFINITY_UPPER_BOUNDARY [nM]>
4878.901259

> <BIOSOLVEIT.HYDE_LIGAND_EFFICIENCY range: ++, +, 0, -, -->
0

> <BIOSOLVEIT.HYDE_LIGAND_LIPOPHILIC_EFFICIENCY range: ++, +, 0, -, -->
0

> <BIOSOLVEIT.INTER_CLASH range: red, yellow, green>
green

> <BIOSOLVEIT.INTRA_CLASH range: red, yellow, green>
green

> <BIOSOLVEIT.LOGP>
2.0474

> <BIOSOLVEIT.MOLECULAR WEIGHT>
414.287

> <BIOSOLVEIT.MOLECULE_CHECKSUM>
LTM2LjAxOTE7MS4zMzQwNA==

> <BIOSOLVEIT.TORSION_QUALITY range: red, yellow, green, not rotatable>
red

> <BIOSOLVEIT.TPSA>
70.16

> <BIOSOLVEIT.SEESAR_FAVORITE>
favorite

> <smc_score>
0.563

> <QED_score>
0.756

> <distance>
0.732

> <SimilarityPheSA_1>
0.63

> <Smiles>
CC(=O)N1CCN(C(=O)Cc2ccc(Cl)c(Cl)c2)C(CN2CCOC2=O)C1

> <Similarity_SkelSpheres>
0.618

> <Cluster No>
12.0

> <QueryID>
MAT-POS-bb423b95-1

> <SimilarityPheSA>
0.6302

> <Postera series>
3-aminopyridine-like

> <PDB_code>
Mpro-x11542

> <Approach>
DGM_exploratory_RL

> <ID>
20210628_30

> <SimilarityPheSA_2>
0.613

> <OPTIBRIUM.logD>
1.39605

> <OPTIBRIUM.BBB category>
-

> <OPTIBRIUM.logP>
1.39605

> <OPTIBRIUM.P-gp category>
yes

> <OPTIBRIUM.logS>
3.56248

> <OPTIBRIUM.HIA category>
+

> <OPTIBRIUM.PPB90 category>
low

> <OPTIBRIUM.2D6 affinity category>
medium

> <OPTIBRIUM.hERG pIC50>
4.67136

> <OPTIBRIUM.2C9 pKi>
4.76795

> <OPTIBRIUM.BBB log([brain]:[blood])>
-0.889797

> <OPTIBRIUM.logS @ pH7.4>
3.56248

$$$$
Compound 31_1_04
haSeeSAR  07122111353D 1   1.00000     0.00000     0
SeeSAR 11.0.2 hazemaj
 32 35  0  0  0  0            999 V2000
   13.5592   -1.9168   21.4277 Cl  0  0  0  0  0  0  0  0  0  0  0  0
   12.1771   -1.0622   22.1544 C   0  0  0  0  0  0  0  0  0  0  0  0
   12.3949   -0.1352   23.1658 C   0  0  0  0  0  0  0  0  0  0  0  0
   10.8843   -1.3192   21.7181 C   0  0  0  0  0  0  0  0  0  0  0  0
   14.0482    0.1976   23.7297 Cl  0  0  0  0  0  0  0  0  0  0  0  0
   11.3446    0.5527   23.7610 C   0  0  0  0  0  0  0  0  0  0  0  0
    9.8448   -0.6238   22.3240 C   0  0  0  0  0  0  0  0  0  0  0  0
   10.0545    0.2933   23.3180 C   0  0  0  0  0  0  0  0  0  0  0  0
    8.3527   -0.3669   22.4256 C   0  0  1  0  0  0  0  0  0  0  0  0
    8.5986    0.6325   23.5243 C   0  0  0  0  0  0  0  0  0  0  0  0
    7.7863    0.3302   21.1968 C   0  0  0  0  0  0  0  0  0  0  0  0
    8.3615    1.3115   20.7260 O   0  0  0  0  0  0  0  0  0  0  0  0
    6.6758   -0.1183   20.6348 N   0  0  0  0  0  0  0  0  0  0  0  0
    6.1547    0.5231   19.5041 C   0  0  0  0  0  0  0  0  0  0  0  0
    4.9567    1.2803   19.5964 C   0  0  0  0  0  0  0  0  0  0  0  0
    6.7796    0.4393   18.2865 C   0  0  0  0  0  0  0  0  0  0  0  0
    4.4328    1.9341   18.4656 C   0  0  0  0  0  0  0  0  0  0  0  0
    4.0994    1.5625   20.6188 C   0  0  0  0  0  0  0  0  0  0  0  0
    6.2641    1.0720   17.1840 N   0  0  0  0  0  0  0  0  0  0  0  0
    3.3321    2.5622   18.8268 N   0  0  0  0  0  0  0  0  0  0  0  0
    5.1531    1.7855   17.2482 C   0  0  0  0  0  0  0  0  0  0  0  0
    3.1110    2.3539   20.1147 N   0  0  0  0  0  0  0  0  0  0  0  0
   10.7068   -1.9832   20.9915 H   0  0  0  0  0  0  0  0  0  0  0  0
   11.5134    1.2171   24.4890 H   0  0  0  0  0  0  0  0  0  0  0  0
    7.8247   -1.1648   22.7164 H   0  0  0  0  0  0  0  0  0  0  0  0
    8.3455    1.5754   23.3077 H   0  0  0  0  0  0  0  0  0  0  0  0
    8.2253    0.3842   24.4183 H   0  0  0  0  0  0  0  0  0  0  0  0
    6.2085   -0.9154   21.0172 H   0  0  0  0  0  0  0  0  0  0  0  0
    7.6232   -0.0908   18.2011 H   0  0  0  0  0  0  0  0  0  0  0  0
    4.1809    1.2468   21.5641 H   0  0  0  0  0  0  0  0  0  0  0  0
    4.8108    2.2312   16.4211 H   0  0  0  0  0  0  0  0  0  0  0  0
    2.7543    3.1106   18.2222 H   0  0  0  0  0  0  0  0  0  0  0  0
  1  2  1  0  0  0  0
  2  3  2  0  0  0  0
  2  4  1  0  0  0  0
  3  5  1  0  0  0  0
  3  6  1  0  0  0  0
  4  7  2  0  0  0  0
  6  8  2  0  0  0  0
  7  9  1  0  0  0  0
  8 10  1  0  0  0  0
  9 11  1  0  0  0  0
 11 12  2  0  0  0  0
 11 13  1  0  0  0  0
 13 14  1  0  0  0  0
 14 15  2  0  0  0  0
 14 16  1  0  0  0  0
 15 17  1  0  0  0  0
 15 18  1  0  0  0  0
 16 19  2  0  0  0  0
 17 20  1  0  0  0  0
 17 21  2  0  0  0  0
 18 22  2  0  0  0  0
  7  8  1  0  0  0  0
  9 10  1  0  0  0  0
 19 21  1  0  0  0  0
 20 22  1  0  0  0  0
  4 23  1  0  0  0  0
  6 24  1  0  0  0  0
  9 25  1  0  0  0  0
 10 26  1  0  0  0  0
 10 27  1  0  0  0  0
 13 28  1  0  0  0  0
 16 29  1  0  0  0  0
 18 30  1  0  0  0  0
 21 31  1  0  0  0  0
 20 32  1  0  0  0  0
M  END
> <BIOSOLVEIT.HYDE_ESTIMATED_AFFINITY_LOWER_BOUNDARY [nM]>
54.995774

> <BIOSOLVEIT.HYDE_ESTIMATED_AFFINITY_UPPER_BOUNDARY [nM]>
5464.155288

> <BIOSOLVEIT.HYDE_LIGAND_EFFICIENCY range: ++, +, 0, -, -->
0

> <BIOSOLVEIT.HYDE_LIGAND_LIPOPHILIC_EFFICIENCY range: ++, +, 0, -, -->
-

> <BIOSOLVEIT.INTER_CLASH range: red, yellow, green>
red

> <BIOSOLVEIT.INTRA_CLASH range: red, yellow, green>
green

> <BIOSOLVEIT.LOGP>
3.5431

> <BIOSOLVEIT.MOLECULAR WEIGHT>
333.177

> <BIOSOLVEIT.MOLECULE_CHECKSUM>
LTM1LjczODM7MS42MjQ0Nw==

> <BIOSOLVEIT.TORSION_QUALITY range: red, yellow, green, not rotatable>
green

> <BIOSOLVEIT.TPSA>
70.67

> <BIOSOLVEIT.SEESAR_FAVORITE>
favorite

> <smc_score>
0.563

> <QED_score>
0.753

> <distance>
0.531

> <SimilarityPheSA_1>
0.762

> <Smiles>
O=C(Nc1cncc2n[nH]cc12)C1Cc2cc(Cl)c(Cl)cc21

> <Similarity_SkelSpheres>
0.577

> <Cluster No>
17.0

> <QueryID>
JAN-GHE-5a013bed-2

> <SimilarityPheSA>
0.7618

> <Postera series>
3-aminopyridine-like

> <PDB_code>
Mpro-x10466

> <Approach>
DGM_focussed_RL

> <ID>
20210618_30

> <SimilarityPheSA_2>
0.834

> <OPTIBRIUM.logD>
3.16135

> <OPTIBRIUM.BBB category>
-

> <OPTIBRIUM.logP>
3.16135

> <OPTIBRIUM.P-gp category>
no

> <OPTIBRIUM.logS>
1.15068

> <OPTIBRIUM.HIA category>
+

> <OPTIBRIUM.PPB90 category>
high

> <OPTIBRIUM.2D6 affinity category>
high

> <OPTIBRIUM.hERG pIC50>
4.32853

> <OPTIBRIUM.2C9 pKi>
5.19078

> <OPTIBRIUM.BBB log([brain]:[blood])>
-0.478882

> <OPTIBRIUM.logS @ pH7.4>
1.15068

$$$$
Compound 1677_1_01
haSeeSAR  07122111353D 1   1.00000     0.00000     0
SeeSAR 11.0.2 hazemaj
 44 46  0  0  0  0            999 V2000
   13.9743    0.2025   23.3948 Cl  0  0  0  0  0  0  0  0  0  0  0  0
   12.2669   -0.1333   23.0229 C   0  0  0  0  0  0  0  0  0  0  0  0
   11.9359   -0.9138   21.9215 C   0  0  0  0  0  0  0  0  0  0  0  0
   11.2719    0.3917   23.8409 C   0  0  0  0  0  0  0  0  0  0  0  0
   13.2259   -1.5746   20.8883 Cl  0  0  0  0  0  0  0  0  0  0  0  0
   10.6064   -1.1841   21.6165 C   0  0  0  0  0  0  0  0  0  0  0  0
    9.9417    0.1217   23.5374 C   0  0  0  0  0  0  0  0  0  0  0  0
    9.6128   -0.6587   22.4351 C   0  0  0  0  0  0  0  0  0  0  0  0
    8.9818    0.6159   24.3117 F   0  0  0  0  0  0  0  0  0  0  0  0
    8.1537   -0.9420   22.1180 C   0  0  0  0  0  0  0  0  0  0  0  0
    7.3467    0.2494   22.4184 N   0  0  0  0  0  0  0  0  0  0  0  0
    7.5404    1.3680   21.7390 C   0  0  0  0  0  0  0  0  0  0  0  0
    8.3964    1.4112   20.8554 O   0  0  0  0  0  0  0  0  0  0  0  0
    6.7059    2.6000   22.0496 C   0  0  0  0  0  0  0  0  0  0  0  0
    5.3409    2.1889   22.4123 N   0  0  0  0  0  0  0  0  0  0  0  0
    4.9252    1.8204   23.6002 N   0  0  0  0  0  0  0  0  0  0  0  0
    4.2731    2.1123   21.5825 C   0  0  0  0  0  0  0  0  0  0  0  0
    3.6924    1.5350   23.5532 N   0  0  0  0  0  0  0  0  0  0  0  0
    3.2694    1.7006   22.3199 N   0  0  0  0  0  0  0  0  0  0  0  0
    4.2455    2.4356   20.0968 C   0  0  0  0  0  0  0  0  0  0  0  0
    5.3512    1.7355   19.4216 N   0  3  0  0  0  0  0  0  0  0  0  0
    5.3672    0.3122   19.7971 C   0  0  0  0  0  0  0  0  0  0  0  0
    5.2321    1.9294   17.9660 C   0  0  0  0  0  0  0  0  0  0  0  0
    6.4110   -0.4340   18.9804 C   0  0  0  0  0  0  0  0  0  0  0  0
    5.1927    0.6071   17.2116 C   0  0  0  0  0  0  0  0  0  0  0  0
    6.2852   -0.2350   17.5747 O   0  0  0  0  0  0  0  0  0  0  0  0
   11.5088    0.9537   24.6334 H   0  0  0  0  0  0  0  0  0  0  0  0
   10.3694   -1.7457   20.8237 H   0  0  0  0  0  0  0  0  0  0  0  0
    7.8348   -1.7095   22.6740 H   0  0  0  0  0  0  0  0  0  0  0  0
    8.0617   -1.1715   21.1490 H   0  0  0  0  0  0  0  0  0  0  0  0
    6.6514    0.2143   23.1361 H   0  0  0  0  0  0  0  0  0  0  0  0
    6.6729    3.1919   21.2442 H   0  0  0  0  0  0  0  0  0  0  0  0
    7.1179    3.0979   22.8127 H   0  0  0  0  0  0  0  0  0  0  0  0
    4.3477    3.4220   19.9684 H   0  0  0  0  0  0  0  0  0  0  0  0
    3.3743    2.1371   19.7069 H   0  0  0  0  0  0  0  0  0  0  0  0
    4.4662   -0.0855   19.6241 H   0  0  0  0  0  0  0  0  0  0  0  0
    5.5870    0.2293   20.7691 H   0  0  0  0  0  0  0  0  0  0  0  0
    6.0176    2.4593   17.6463 H   0  0  0  0  0  0  0  0  0  0  0  0
    4.3900    2.4340   17.7759 H   0  0  0  0  0  0  0  0  0  0  0  0
    6.3215   -1.4116   19.1706 H   0  0  0  0  0  0  0  0  0  0  0  0
    7.3173   -0.1208   19.2642 H   0  0  0  0  0  0  0  0  0  0  0  0
    5.2371    0.7918   16.2298 H   0  0  0  0  0  0  0  0  0  0  0  0
    4.3358    0.1374   17.4240 H   0  0  0  0  0  0  0  0  0  0  0  0
    6.2114    2.1475   19.7221 H   0  0  0  0  0  0  0  0  0  0  0  0
  1  2  1  0  0  0  0
  2  3  2  0  0  0  0
  2  4  1  0  0  0  0
  3  5  1  0  0  0  0
  3  6  1  0  0  0  0
  4  7  2  0  0  0  0
  6  8  2  0  0  0  0
  7  9  1  0  0  0  0
  8 10  1  0  0  0  0
 10 11  1  0  0  0  0
 11 12  1  0  0  0  0
 12 13  2  0  0  0  0
 12 14  1  0  0  0  0
 14 15  1  0  0  0  0
 15 16  1  0  0  0  0
 15 17  1  0  0  0  0
 16 18  2  0  0  0  0
 17 19  2  0  0  0  0
 17 20  1  0  0  0  0
 20 21  1  0  0  0  0
 21 22  1  0  0  0  0
 21 23  1  0  0  0  0
 22 24  1  0  0  0  0
 23 25  1  0  0  0  0
 24 26  1  0  0  0  0
  7  8  1  0  0  0  0
 18 19  1  0  0  0  0
 25 26  1  0  0  0  0
  4 27  1  0  0  0  0
  6 28  1  0  0  0  0
 10 29  1  0  0  0  0
 10 30  1  0  0  0  0
 11 31  1  0  0  0  0
 14 32  1  0  0  0  0
 14 33  1  0  0  0  0
 20 34  1  0  0  0  0
 20 35  1  0  0  0  0
 22 36  1  0  0  0  0
 22 37  1  0  0  0  0
 23 38  1  0  0  0  0
 23 39  1  0  0  0  0
 24 40  1  0  0  0  0
 24 41  1  0  0  0  0
 25 42  1  0  0  0  0
 25 43  1  0  0  0  0
 21 44  1  0  0  0  0
M  CHG  1  21   1
M  END
> <BIOSOLVEIT.HYDE_ESTIMATED_AFFINITY_LOWER_BOUNDARY [nM]>
57.785512

> <BIOSOLVEIT.HYDE_ESTIMATED_AFFINITY_UPPER_BOUNDARY [nM]>
5741.332249

> <BIOSOLVEIT.HYDE_LIGAND_EFFICIENCY range: ++, +, 0, -, -->
0

> <BIOSOLVEIT.HYDE_LIGAND_LIPOPHILIC_EFFICIENCY range: ++, +, 0, -, -->
+

> <BIOSOLVEIT.INTER_CLASH range: red, yellow, green>
yellow

> <BIOSOLVEIT.INTRA_CLASH range: red, yellow, green>
red

> <BIOSOLVEIT.LOGP>
-0.1495

> <BIOSOLVEIT.MOLECULAR WEIGHT>
404.251

> <BIOSOLVEIT.MOLECULE_CHECKSUM>
LTM1LjYxNTY7MS4zNjk4Mw==

> <BIOSOLVEIT.TORSION_QUALITY range: red, yellow, green, not rotatable>
yellow

> <BIOSOLVEIT.TPSA>
86.37

> <BIOSOLVEIT.SEESAR_FAVORITE>
favorite

> <smc_score>
0.938

> <QED_score>
0.732

> <distance>
0.706

> <SimilarityPheSA_1>
0.649

> <Smiles>
O=C(Cn1nnnc1CN1CCOCC1)NCc1cc(Cl)c(Cl)cc1F

> <Similarity_SkelSpheres>
0.574

> <Cluster No>
451.0

> <QueryID>
JAN-GHE-5a013bed-2

> <SimilarityPheSA>
0.6491

> <Postera series>
3-aminopyridine-like

> <PDB_code>
Mpro-x10466

> <Approach>
DGM_exploratory_RL

> <ID>
20210628_947

> <SimilarityPheSA_2>
0.664

> <OPTIBRIUM.logD>
-0.269118

> <OPTIBRIUM.BBB category>
-

> <OPTIBRIUM.logP>
1.36368

> <OPTIBRIUM.P-gp category>
yes

> <OPTIBRIUM.logS>
3.43185

> <OPTIBRIUM.HIA category>
-

> <OPTIBRIUM.PPB90 category>
low

> <OPTIBRIUM.2D6 affinity category>
low

> <OPTIBRIUM.hERG pIC50>
5.13977

> <OPTIBRIUM.2C9 pKi>
4.68636

> <OPTIBRIUM.BBB log([brain]:[blood])>
-0.437916

> <OPTIBRIUM.logS @ pH7.4>
3.23591

$$$$
Compound 1677_1_02
haSeeSAR  07122111353D 1   1.00000     0.00000     0
SeeSAR 11.0.2 hazemaj
 44 46  0  0  0  0            999 V2000
   13.9677    0.2065   23.3989 Cl  0  0  0  0  0  0  0  0  0  0  0  0
   12.2610   -0.1302   23.0244 C   0  0  0  0  0  0  0  0  0  0  0  0
   11.9322   -0.9118   21.9231 C   0  0  0  0  0  0  0  0  0  0  0  0
   11.2644    0.3954   23.8400 C   0  0  0  0  0  0  0  0  0  0  0  0
   13.2241   -1.5733   20.8929 Cl  0  0  0  0  0  0  0  0  0  0  0  0
   10.6032   -1.1827   21.6160 C   0  0  0  0  0  0  0  0  0  0  0  0
    9.9348    0.1248   23.5345 C   0  0  0  0  0  0  0  0  0  0  0  0
    9.6080   -0.6568   22.4323 C   0  0  0  0  0  0  0  0  0  0  0  0
    8.9734    0.6194   24.3067 F   0  0  0  0  0  0  0  0  0  0  0  0
    8.1497   -0.9408   22.1129 C   0  0  0  0  0  0  0  0  0  0  0  0
    7.3417    0.2505   22.4111 N   0  0  0  0  0  0  0  0  0  0  0  0
    7.5351    1.3683   21.7303 C   0  0  0  0  0  0  0  0  0  0  0  0
    8.3916    1.4106   20.8471 O   0  0  0  0  0  0  0  0  0  0  0  0
    6.6997    2.6000   22.0386 C   0  0  0  0  0  0  0  0  0  0  0  0
    5.3346    2.1887   22.4003 N   0  0  0  0  0  0  0  0  0  0  0  0
    4.9191    1.8160   23.5870 N   0  0  0  0  0  0  0  0  0  0  0  0
    4.2663    2.1164   21.5707 C   0  0  0  0  0  0  0  0  0  0  0  0
    3.6861    1.5318   23.5395 N   0  0  0  0  0  0  0  0  0  0  0  0
    3.2626    1.7027   22.3070 N   0  0  0  0  0  0  0  0  0  0  0  0
    4.2383    2.4455   20.0865 C   0  0  0  0  0  0  0  0  0  0  0  0
    5.3440    1.7485   19.4081 N   0  3  0  0  0  0  0  0  0  0  0  0
    5.2571    1.9295   17.9510 C   0  0  0  0  0  0  0  0  0  0  0  0
    5.3635    0.3268   19.7901 C   0  0  0  0  0  0  0  0  0  0  0  0
    5.1922    0.5986   17.2091 C   0  0  0  0  0  0  0  0  0  0  0  0
    6.3972   -0.4441   18.9821 C   0  0  0  0  0  0  0  0  0  0  0  0
    6.2631   -0.2620   17.5756 O   0  0  0  0  0  0  0  0  0  0  0  0
   11.4998    0.9582   24.6324 H   0  0  0  0  0  0  0  0  0  0  0  0
   10.3678   -1.7451   20.8234 H   0  0  0  0  0  0  0  0  0  0  0  0
    7.8300   -1.7081   22.6689 H   0  0  0  0  0  0  0  0  0  0  0  0
    8.0593   -1.1710   21.1440 H   0  0  0  0  0  0  0  0  0  0  0  0
    6.6460    0.2160   23.1286 H   0  0  0  0  0  0  0  0  0  0  0  0
    6.6673    3.1911   21.2326 H   0  0  0  0  0  0  0  0  0  0  0  0
    7.1107    3.0991   22.8015 H   0  0  0  0  0  0  0  0  0  0  0  0
    4.3400    3.4325   19.9618 H   0  0  0  0  0  0  0  0  0  0  0  0
    3.3671    2.1482   19.6955 H   0  0  0  0  0  0  0  0  0  0  0  0
    6.0634    2.4326   17.6402 H   0  0  0  0  0  0  0  0  0  0  0  0
    4.4337    2.4564   17.7403 H   0  0  0  0  0  0  0  0  0  0  0  0
    4.4596   -0.0680   19.6254 H   0  0  0  0  0  0  0  0  0  0  0  0
    5.5875    0.2529   20.7619 H   0  0  0  0  0  0  0  0  0  0  0  0
    5.2393    0.7733   16.2257 H   0  0  0  0  0  0  0  0  0  0  0  0
    4.3261    0.1485   17.4266 H   0  0  0  0  0  0  0  0  0  0  0  0
    6.2984   -1.4179   19.1869 H   0  0  0  0  0  0  0  0  0  0  0  0
    7.3084   -0.1365   19.2564 H   0  0  0  0  0  0  0  0  0  0  0  0
    6.2011    2.1604   19.7173 H   0  0  0  0  0  0  0  0  0  0  0  0
  1  2  1  0  0  0  0
  2  3  2  0  0  0  0
  2  4  1  0  0  0  0
  3  5  1  0  0  0  0
  3  6  1  0  0  0  0
  4  7  2  0  0  0  0
  6  8  2  0  0  0  0
  7  9  1  0  0  0  0
  8 10  1  0  0  0  0
 10 11  1  0  0  0  0
 11 12  1  0  0  0  0
 12 13  2  0  0  0  0
 12 14  1  0  0  0  0
 14 15  1  0  0  0  0
 15 16  1  0  0  0  0
 15 17  1  0  0  0  0
 16 18  2  0  0  0  0
 17 19  2  0  0  0  0
 17 20  1  0  0  0  0
 20 21  1  0  0  0  0
 21 22  1  0  0  0  0
 21 23  1  0  0  0  0
 22 24  1  0  0  0  0
 23 25  1  0  0  0  0
 24 26  1  0  0  0  0
  7  8  1  0  0  0  0
 18 19  1  0  0  0  0
 25 26  1  0  0  0  0
  4 27  1  0  0  0  0
  6 28  1  0  0  0  0
 10 29  1  0  0  0  0
 10 30  1  0  0  0  0
 11 31  1  0  0  0  0
 14 32  1  0  0  0  0
 14 33  1  0  0  0  0
 20 34  1  0  0  0  0
 20 35  1  0  0  0  0
 22 36  1  0  0  0  0
 22 37  1  0  0  0  0
 23 38  1  0  0  0  0
 23 39  1  0  0  0  0
 24 40  1  0  0  0  0
 24 41  1  0  0  0  0
 25 42  1  0  0  0  0
 25 43  1  0  0  0  0
 21 44  1  0  0  0  0
M  CHG  1  21   1
M  END
> <BIOSOLVEIT.HYDE_ESTIMATED_AFFINITY_LOWER_BOUNDARY [nM]>
63.800657

> <BIOSOLVEIT.HYDE_ESTIMATED_AFFINITY_UPPER_BOUNDARY [nM]>
6338.972478

> <BIOSOLVEIT.HYDE_LIGAND_EFFICIENCY range: ++, +, 0, -, -->
0

> <BIOSOLVEIT.HYDE_LIGAND_LIPOPHILIC_EFFICIENCY range: ++, +, 0, -, -->
+

> <BIOSOLVEIT.INTER_CLASH range: red, yellow, green>
yellow

> <BIOSOLVEIT.INTRA_CLASH range: red, yellow, green>
red

> <BIOSOLVEIT.LOGP>
-0.1495

> <BIOSOLVEIT.MOLECULAR WEIGHT>
404.251

> <BIOSOLVEIT.MOLECULE_CHECKSUM>
LTM1LjM3MDE7MS4zNjAzOQ==

> <BIOSOLVEIT.TORSION_QUALITY range: red, yellow, green, not rotatable>
yellow

> <BIOSOLVEIT.TPSA>
86.37

> <BIOSOLVEIT.SEESAR_FAVORITE>
favorite

> <smc_score>
0.938

> <QED_score>
0.732

> <distance>
0.706

> <SimilarityPheSA_1>
0.649

> <Smiles>
O=C(Cn1nnnc1CN1CCOCC1)NCc1cc(Cl)c(Cl)cc1F

> <Similarity_SkelSpheres>
0.574

> <Cluster No>
451.0

> <QueryID>
JAN-GHE-5a013bed-2

> <SimilarityPheSA>
0.6491

> <Postera series>
3-aminopyridine-like

> <PDB_code>
Mpro-x10466

> <Approach>
DGM_exploratory_RL

> <ID>
20210628_947

> <SimilarityPheSA_2>
0.664

> <OPTIBRIUM.logD>
-0.269118

> <OPTIBRIUM.BBB category>
-

> <OPTIBRIUM.logP>
1.36368

> <OPTIBRIUM.P-gp category>
yes

> <OPTIBRIUM.logS>
3.43185

> <OPTIBRIUM.HIA category>
-

> <OPTIBRIUM.PPB90 category>
low

> <OPTIBRIUM.2D6 affinity category>
low

> <OPTIBRIUM.hERG pIC50>
5.13977

> <OPTIBRIUM.2C9 pKi>
4.68636

> <OPTIBRIUM.BBB log([brain]:[blood])>
-0.437916

> <OPTIBRIUM.logS @ pH7.4>
3.23591

$$$$
Compound 715_1_10
haSeeSAR  07122111353D 1   1.00000     0.00000     0
SeeSAR 11.0.2 hazemaj
 40 43  0  0  0  0            999 V2000
   12.5277    2.3518   23.6030 Cl  0  0  0  0  0  0  0  0  0  0  0  0
   12.4570    0.6833   22.9869 C   0  0  0  0  0  0  0  0  0  0  0  0
   11.2743   -0.0456   23.0533 C   0  0  0  0  0  0  0  0  0  0  0  0
   13.6036    0.1185   22.4378 C   0  0  0  0  0  0  0  0  0  0  0  0
   11.2325   -1.3483   22.5678 C   0  0  0  0  0  0  0  0  0  0  0  0
   10.0271    0.5817   23.6556 C   0  0  0  0  0  0  0  0  0  0  0  0
   13.5556   -1.1849   21.9538 C   0  0  0  0  0  0  0  0  0  0  0  0
   12.3757   -1.9180   22.0172 C   0  0  0  0  0  0  0  0  0  0  0  0
    8.8555    0.2213   22.8426 N   0  0  0  0  0  0  0  0  0  0  0  0
    8.4817    0.8108   21.6381 C   0  0  0  0  0  0  0  0  0  0  0  0
    7.8863   -0.8026   23.2318 C   0  0  0  0  0  0  0  0  0  0  0  0
    9.0731    1.7372   21.1149 O   0  0  0  0  0  0  0  0  0  0  0  0
    7.3435    0.1677   21.1386 N   0  0  0  0  0  0  0  0  0  0  0  0
    6.9860   -0.9523   22.0183 C   0  0  0  0  0  0  0  0  0  0  0  0
    6.6561    0.5293   19.9726 C   0  0  0  0  0  0  0  0  0  0  0  0
    5.4530    1.2321   19.9976 C   0  0  0  0  0  0  0  0  0  0  0  0
    7.2010    0.1698   18.7446 C   0  0  0  0  0  0  0  0  0  0  0  0
    4.8232    1.5590   18.8009 C   0  0  0  0  0  0  0  0  0  0  0  0
    4.8467    1.6262   21.1862 C   0  0  0  0  0  0  0  0  0  0  0  0
    6.5780    0.4948   17.6022 N   0  0  0  0  0  0  0  0  0  0  0  0
    5.4194    1.1707   17.6054 C   0  0  0  0  0  0  0  0  0  0  0  0
    3.6222    2.2604   18.8004 C   0  0  0  0  0  0  0  0  0  0  0  0
    3.6456    2.3278   21.1958 C   0  0  0  0  0  0  0  0  0  0  0  0
    3.0243    2.6500   19.9942 C   0  0  0  0  0  0  0  0  0  0  0  0
    2.9327    2.7958   22.7579 Cl  0  0  0  0  0  0  0  0  0  0  0  0
   14.4532    0.6438   22.3914 H   0  0  0  0  0  0  0  0  0  0  0  0
   10.3831   -1.8739   22.6146 H   0  0  0  0  0  0  0  0  0  0  0  0
   10.1287    1.5764   23.6713 H   0  0  0  0  0  0  0  0  0  0  0  0
    9.9018    0.2447   24.5887 H   0  0  0  0  0  0  0  0  0  0  0  0
   14.3757   -1.5976   21.5573 H   0  0  0  0  0  0  0  0  0  0  0  0
   12.3491   -2.8543   21.6671 H   0  0  0  0  0  0  0  0  0  0  0  0
    7.3596   -0.5065   24.0286 H   0  0  0  0  0  0  0  0  0  0  0  0
    8.3471   -1.6655   23.4390 H   0  0  0  0  0  0  0  0  0  0  0  0
    6.0241   -0.8960   22.2853 H   0  0  0  0  0  0  0  0  0  0  0  0
    7.1547   -1.8256   21.5612 H   0  0  0  0  0  0  0  0  0  0  0  0
    8.0639   -0.3347   18.7132 H   0  0  0  0  0  0  0  0  0  0  0  0
    5.2855    1.3995   22.0556 H   0  0  0  0  0  0  0  0  0  0  0  0
    4.9786    1.3985   16.7372 H   0  0  0  0  0  0  0  0  0  0  0  0
    3.1832    2.4875   17.9310 H   0  0  0  0  0  0  0  0  0  0  0  0
    2.1608    3.1541   19.9885 H   0  0  0  0  0  0  0  0  0  0  0  0
  1  2  1  0  0  0  0
  2  3  2  0  0  0  0
  2  4  1  0  0  0  0
  3  5  1  0  0  0  0
  3  6  1  0  0  0  0
  4  7  2  0  0  0  0
  5  8  2  0  0  0  0
  6  9  1  0  0  0  0
  9 10  1  0  0  0  0
  9 11  1  0  0  0  0
 10 12  2  0  0  0  0
 10 13  1  0  0  0  0
 11 14  1  0  0  0  0
 13 15  1  0  0  0  0
 15 16  1  0  0  0  0
 15 17  2  0  0  0  0
 16 18  1  0  0  0  0
 16 19  2  0  0  0  0
 17 20  1  0  0  0  0
 18 21  1  0  0  0  0
 18 22  2  0  0  0  0
 19 23  1  0  0  0  0
 22 24  1  0  0  0  0
 23 25  1  0  0  0  0
  7  8  1  0  0  0  0
 13 14  1  0  0  0  0
 20 21  2  0  0  0  0
 23 24  2  0  0  0  0
  4 26  1  0  0  0  0
  5 27  1  0  0  0  0
  6 28  1  0  0  0  0
  6 29  1  0  0  0  0
  7 30  1  0  0  0  0
  8 31  1  0  0  0  0
 11 32  1  0  0  0  0
 11 33  1  0  0  0  0
 14 34  1  0  0  0  0
 14 35  1  0  0  0  0
 17 36  1  0  0  0  0
 19 37  1  0  0  0  0
 21 38  1  0  0  0  0
 22 39  1  0  0  0  0
 24 40  1  0  0  0  0
M  END
> <BIOSOLVEIT.HYDE_ESTIMATED_AFFINITY_LOWER_BOUNDARY [nM]>
81.197516

> <BIOSOLVEIT.HYDE_ESTIMATED_AFFINITY_UPPER_BOUNDARY [nM]>
8067.453340

> <BIOSOLVEIT.HYDE_LIGAND_EFFICIENCY range: ++, +, 0, -, -->
0

> <BIOSOLVEIT.HYDE_LIGAND_LIPOPHILIC_EFFICIENCY range: ++, +, 0, -, -->
--

> <BIOSOLVEIT.INTER_CLASH range: red, yellow, green>
green

> <BIOSOLVEIT.INTRA_CLASH range: red, yellow, green>
green

> <BIOSOLVEIT.LOGP>
4.9838

> <BIOSOLVEIT.MOLECULAR WEIGHT>
372.254

> <BIOSOLVEIT.MOLECULE_CHECKSUM>
LTM0Ljc3MjQ7MS4zOTA5

> <BIOSOLVEIT.TORSION_QUALITY range: red, yellow, green, not rotatable>
green

> <BIOSOLVEIT.TPSA>
36.44

> <BIOSOLVEIT.SEESAR_FAVORITE>
favorite

> <smc_score>
0.563

> <QED_score>
0.65

> <distance>
0.578

> <SimilarityPheSA_1>
0.766

> <Smiles>
O=C1N(Cc2ccccc2Cl)CCN1c1cncc2ccc(Cl)cc12

> <Similarity_SkelSpheres>
0.732

> <Cluster No>
405.0

> <QueryID>
PET-UNK-c9c1e0d8-3

> <SimilarityPheSA>
0.7662

> <Postera series>
3-aminopyridine-like

> <PDB_code>
Mpro-x12587

> <Approach>
DGM_focussed_RL

> <ID>
20210618_714

> <SimilarityPheSA_2>
0.938

> <OPTIBRIUM.logD>
4.28612

> <OPTIBRIUM.BBB category>
+

> <OPTIBRIUM.logP>
4.28612

> <OPTIBRIUM.P-gp category>
no

> <OPTIBRIUM.logS>
-0.0690537

> <OPTIBRIUM.HIA category>
+

> <OPTIBRIUM.PPB90 category>
high

> <OPTIBRIUM.2D6 affinity category>
medium

> <OPTIBRIUM.hERG pIC50>
5.60476

> <OPTIBRIUM.2C9 pKi>
5.70523

> <OPTIBRIUM.BBB log([brain]:[blood])>
0.0777893

> <OPTIBRIUM.logS @ pH7.4>
-0.0690537

$$$$
Compound 687_1_3
haSeeSAR  07122111353D 1   1.00000     0.00000     0
SeeSAR 11.0.2 hazemaj
 34 37  0  0  0  0            999 V2000
    2.4228    3.3334   19.0200 Cl  0  0  0  0  0  0  0  0  0  0  0  0
    3.7780    2.2186   19.3193 C   0  0  0  0  0  0  0  0  0  0  0  0
    4.1098    1.8820   20.6261 C   0  0  0  0  0  0  0  0  0  0  0  0
    4.5068    1.6723   18.2688 C   0  0  0  0  0  0  0  0  0  0  0  0
    3.1881    2.5415   21.9975 Cl  0  0  0  0  0  0  0  0  0  0  0  0
    5.1689    1.0235   20.8847 C   0  0  0  0  0  0  0  0  0  0  0  0
    5.5579    0.7881   18.4916 C   0  0  0  0  0  0  0  0  0  0  0  0
    5.8743    0.5044   19.8047 C   0  0  0  0  0  0  0  0  0  0  0  0
    6.3794    0.1021   17.6749 O   0  0  0  0  0  0  0  0  0  0  0  0
    7.0648   -0.4245   19.8116 C   0  0  1  0  0  0  0  0  0  0  0  0
    7.5503   -0.2230   18.3913 C   0  0  0  0  0  0  0  0  0  0  0  0
    8.1146    0.0221   20.8186 C   0  0  0  0  0  0  0  0  0  0  0  0
    8.8092    0.9712   20.5801 O   0  0  0  0  0  0  0  0  0  0  0  0
    8.2667   -0.6592   21.9973 N   0  0  0  0  0  0  0  0  0  0  0  0
    9.1984   -0.2629   22.8909 N   0  0  0  0  0  0  0  0  0  0  0  0
   10.5466   -0.3801   22.7204 C   0  0  0  0  0  0  0  0  0  0  0  0
    8.9277    0.3113   24.0984 C   0  0  0  0  0  0  0  0  0  0  0  0
   11.0975    0.1438   23.8677 C   0  0  0  0  0  0  0  0  0  0  0  0
   11.4171   -0.8659   21.7433 C   0  0  0  0  0  0  0  0  0  0  0  0
   10.0785    0.5578   24.6804 N   0  0  0  0  0  0  0  0  0  0  0  0
   12.4814    0.1791   24.0148 C   0  0  0  0  0  0  0  0  0  0  0  0
   12.8070   -0.8458   21.8675 C   0  0  0  0  0  0  0  0  0  0  0  0
   13.0027    0.6952   25.1245 F   0  0  0  0  0  0  0  0  0  0  0  0
   13.3402   -0.3069   23.0341 C   0  0  0  0  0  0  0  0  0  0  0  0
   13.6321   -1.3155   20.9263 F   0  0  0  0  0  0  0  0  0  0  0  0
    4.2698    1.9211   17.3297 H   0  0  0  0  0  0  0  0  0  0  0  0
    5.4184    0.7846   21.8231 H   0  0  0  0  0  0  0  0  0  0  0  0
    6.7869   -1.3718   19.9708 H   0  0  0  0  0  0  0  0  0  0  0  0
    8.2145    0.5231   18.3448 H   0  0  0  0  0  0  0  0  0  0  0  0
    7.9644   -1.0605   18.0347 H   0  0  0  0  0  0  0  0  0  0  0  0
    7.6879   -1.4501   22.1959 H   0  0  0  0  0  0  0  0  0  0  0  0
    8.0209    0.5083   24.4711 H   0  0  0  0  0  0  0  0  0  0  0  0
   11.0229   -1.2495   20.9081 H   0  0  0  0  0  0  0  0  0  0  0  0
   14.3306   -0.2694   23.1664 H   0  0  0  0  0  0  0  0  0  0  0  0
  1  2  1  0  0  0  0
  2  3  2  0  0  0  0
  2  4  1  0  0  0  0
  3  5  1  0  0  0  0
  3  6  1  0  0  0  0
  4  7  2  0  0  0  0
  6  8  2  0  0  0  0
  7  9  1  0  0  0  0
  8 10  1  0  0  0  0
  9 11  1  0  0  0  0
 10 12  1  0  0  0  0
 12 13  2  0  0  0  0
 12 14  1  0  0  0  0
 14 15  1  0  0  0  0
 15 16  1  0  0  0  0
 15 17  1  0  0  0  0
 16 18  2  0  0  0  0
 16 19  1  0  0  0  0
 17 20  2  0  0  0  0
 18 21  1  0  0  0  0
 19 22  2  0  0  0  0
 21 23  1  0  0  0  0
 21 24  2  0  0  0  0
 22 25  1  0  0  0  0
  7  8  1  0  0  0  0
 10 11  1  0  0  0  0
 18 20  1  0  0  0  0
 22 24  1  0  0  0  0
  4 26  1  0  0  0  0
  6 27  1  0  0  0  0
 10 28  1  0  0  0  0
 11 29  1  0  0  0  0
 11 30  1  0  0  0  0
 14 31  1  0  0  0  0
 17 32  1  0  0  0  0
 19 33  1  0  0  0  0
 24 34  1  0  0  0  0
M  END
> <BIOSOLVEIT.HYDE_ESTIMATED_AFFINITY_LOWER_BOUNDARY [nM]>
81.622832

> <BIOSOLVEIT.HYDE_ESTIMATED_AFFINITY_UPPER_BOUNDARY [nM]>
8109.710912

> <BIOSOLVEIT.HYDE_LIGAND_EFFICIENCY range: ++, +, 0, -, -->
0

> <BIOSOLVEIT.HYDE_LIGAND_LIPOPHILIC_EFFICIENCY range: ++, +, 0, -, -->
-

> <BIOSOLVEIT.INTER_CLASH range: red, yellow, green>
yellow

> <BIOSOLVEIT.INTRA_CLASH range: red, yellow, green>
green

> <BIOSOLVEIT.LOGP>
3.8676

> <BIOSOLVEIT.MOLECULAR WEIGHT>
384.168

> <BIOSOLVEIT.MOLECULE_CHECKSUM>
LTM0Ljc1OTQ7MS4zOTAzOA==

> <BIOSOLVEIT.TORSION_QUALITY range: red, yellow, green, not rotatable>
green

> <BIOSOLVEIT.TPSA>
56.15

> <BIOSOLVEIT.SEESAR_FAVORITE>
favorite

> <smc_score>
0.938

> <QED_score>
0.73

> <distance>
0.653

> <SimilarityPheSA_1>
0.75

> <Smiles>
O=C(Nn1cnc2c(F)cc(F)cc21)C1COc2cc(Cl)c(Cl)cc21

> <Similarity_SkelSpheres>
0.616

> <Cluster No>
386.0

> <QueryID>
JAG-UCB-a3ef7265-20

> <SimilarityPheSA>
0.7495

> <Postera series>
3-aminopyridine-like

> <PDB_code>
Mpro-x10324

> <Approach>
DGM_focussed_RL

> <ID>
20210618_686

> <SimilarityPheSA_2>
0.87

> <OPTIBRIUM.logD>
3.24421

> <OPTIBRIUM.BBB category>
-

> <OPTIBRIUM.logP>
3.24421

> <OPTIBRIUM.P-gp category>
no

> <OPTIBRIUM.logS>
0.272547

> <OPTIBRIUM.HIA category>
+

> <OPTIBRIUM.PPB90 category>
high

> <OPTIBRIUM.2D6 affinity category>
high

> <OPTIBRIUM.hERG pIC50>
5.56757

> <OPTIBRIUM.2C9 pKi>
5.58392

> <OPTIBRIUM.BBB log([brain]:[blood])>
-0.435416

> <OPTIBRIUM.logS @ pH7.4>
0.272547

$$$$
Compound 760_1_10
haSeeSAR  07122111353D 1   1.00000     0.00000     0
SeeSAR 11.0.2 hazemaj
 48 50  0  0  0  0            999 V2000
   13.4811    1.1350   23.0948 Cl  0  0  0  0  0  0  0  0  0  0  0  0
   11.9621    0.2799   22.7365 C   0  0  0  0  0  0  0  0  0  0  0  0
   12.0030   -1.0032   22.2011 C   0  0  0  0  0  0  0  0  0  0  0  0
   10.7426    0.8971   22.9932 C   0  0  0  0  0  0  0  0  0  0  0  0
   13.5705   -1.7829   21.8778 Cl  0  0  0  0  0  0  0  0  0  0  0  0
   10.8275   -1.6889   21.9128 C   0  0  0  0  0  0  0  0  0  0  0  0
    9.5698    0.2080   22.7040 C   0  0  0  0  0  0  0  0  0  0  0  0
    9.6053   -1.0749   22.1679 C   0  0  0  0  0  0  0  0  0  0  0  0
    8.2342    0.8789   22.9826 C   0  0  0  0  0  0  0  0  0  0  0  0
    7.6596    1.4222   21.6846 C   0  0  0  0  0  0  0  0  0  0  0  0
    8.3736    2.0694   20.9186 O   0  0  0  0  0  0  0  0  0  0  0  0
    6.3178    1.1866   21.3600 N   0  0  0  0  0  0  0  0  0  0  0  0
    5.4157    2.2064   20.8133 C   0  0  1  0  0  0  0  0  0  0  0  0
    5.6510   -0.1103   21.5227 C   0  0  0  0  0  0  0  0  0  0  0  0
    4.4367    1.4461   19.9499 C   0  0  0  0  0  0  0  0  0  0  0  0
    4.6419    2.8784   21.9360 C   0  0  0  0  0  0  0  0  0  0  0  0
    5.6219   -0.6851   20.1204 C   0  0  0  0  0  0  0  0  0  0  0  0
    5.2576    0.4420   19.2639 N   0  0  0  0  0  0  0  0  0  0  0  0
    3.2096    2.9311   21.5835 N   0  0  0  0  0  0  0  0  0  0  0  0
    5.6686    0.5548   17.9304 C   0  0  0  0  0  0  0  0  0  0  0  0
    2.1855    2.1221   22.0742 C   0  0  0  0  0  0  0  0  0  0  0  0
    2.5955    3.8761   20.6543 C   0  0  0  0  0  0  0  0  0  0  0  0
    6.1874   -0.4066   17.3628 O   0  0  0  0  0  0  0  0  0  0  0  0
    5.4741    1.8641   17.1833 C   0  0  0  0  0  0  0  0  0  0  0  0
    2.3222    1.2949   22.9581 O   0  0  0  0  0  0  0  0  0  0  0  0
    1.0273    2.3475   21.4351 O   0  0  0  0  0  0  0  0  0  0  0  0
    1.2529    3.2328   20.3543 C   0  0  0  0  0  0  0  0  0  0  0  0
   10.7096    1.8192   23.3786 H   0  0  0  0  0  0  0  0  0  0  0  0
   10.8605   -2.6110   21.5273 H   0  0  0  0  0  0  0  0  0  0  0  0
    8.7522   -1.5562   21.9658 H   0  0  0  0  0  0  0  0  0  0  0  0
    8.3672    1.6305   23.6287 H   0  0  0  0  0  0  0  0  0  0  0  0
    7.6010    0.2111   23.3738 H   0  0  0  0  0  0  0  0  0  0  0  0
    5.9213    2.8798   20.2739 H   0  0  0  0  0  0  0  0  0  0  0  0
    4.7237    0.0086   21.8776 H   0  0  0  0  0  0  0  0  0  0  0  0
    6.1703   -0.7024   22.1389 H   0  0  0  0  0  0  0  0  0  0  0  0
    3.9992    2.0565   19.2896 H   0  0  0  0  0  0  0  0  0  0  0  0
    3.7364    1.0064   20.5123 H   0  0  0  0  0  0  0  0  0  0  0  0
    4.9869    3.8075   22.0691 H   0  0  0  0  0  0  0  0  0  0  0  0
    4.7582    2.3555   22.7806 H   0  0  0  0  0  0  0  0  0  0  0  0
    4.9408   -1.4141   20.0523 H   0  0  0  0  0  0  0  0  0  0  0  0
    6.5205   -1.0438   19.8678 H   0  0  0  0  0  0  0  0  0  0  0  0
    3.1431    3.9705   19.8228 H   0  0  0  0  0  0  0  0  0  0  0  0
    2.4775    4.7736   21.0793 H   0  0  0  0  0  0  0  0  0  0  0  0
    5.8206    1.7700   16.2500 H   0  0  0  0  0  0  0  0  0  0  0  0
    4.5006    2.0910   17.1560 H   0  0  0  0  0  0  0  0  0  0  0  0
    5.9731    2.5928   17.6523 H   0  0  0  0  0  0  0  0  0  0  0  0
    1.2877    2.7315   19.4897 H   0  0  0  0  0  0  0  0  0  0  0  0
    0.5326    3.9250   20.3096 H   0  0  0  0  0  0  0  0  0  0  0  0
  1  2  1  0  0  0  0
  2  3  2  0  0  0  0
  2  4  1  0  0  0  0
  3  5  1  0  0  0  0
  3  6  1  0  0  0  0
  4  7  2  0  0  0  0
  6  8  2  0  0  0  0
  7  9  1  0  0  0  0
  9 10  1  0  0  0  0
 10 11  2  0  0  0  0
 10 12  1  0  0  0  0
 12 13  1  0  0  0  0
 12 14  1  0  0  0  0
 13 15  1  0  0  0  0
 13 16  1  0  0  0  0
 14 17  1  0  0  0  0
 15 18  1  0  0  0  0
 16 19  1  0  0  0  0
 18 20  1  0  0  0  0
 19 21  1  0  0  0  0
 19 22  1  0  0  0  0
 20 23  2  0  0  0  0
 20 24  1  0  0  0  0
 21 25  2  0  0  0  0
 21 26  1  0  0  0  0
 22 27  1  0  0  0  0
  7  8  1  0  0  0  0
 17 18  1  0  0  0  0
 26 27  1  0  0  0  0
  4 28  1  0  0  0  0
  6 29  1  0  0  0  0
  8 30  1  0  0  0  0
  9 31  1  0  0  0  0
  9 32  1  0  0  0  0
 13 33  1  0  0  0  0
 14 34  1  0  0  0  0
 14 35  1  0  0  0  0
 15 36  1  0  0  0  0
 15 37  1  0  0  0  0
 16 38  1  0  0  0  0
 16 39  1  0  0  0  0
 17 40  1  0  0  0  0
 17 41  1  0  0  0  0
 22 42  1  0  0  0  0
 22 43  1  0  0  0  0
 24 44  1  0  0  0  0
 24 45  1  0  0  0  0
 24 46  1  0  0  0  0
 27 47  1  0  0  0  0
 27 48  1  0  0  0  0
M  END
> <BIOSOLVEIT.HYDE_ESTIMATED_AFFINITY_LOWER_BOUNDARY [nM]>
93.620446

> <BIOSOLVEIT.HYDE_ESTIMATED_AFFINITY_UPPER_BOUNDARY [nM]>
9301.744824

> <BIOSOLVEIT.HYDE_LIGAND_EFFICIENCY range: ++, +, 0, -, -->
0

> <BIOSOLVEIT.HYDE_LIGAND_LIPOPHILIC_EFFICIENCY range: ++, +, 0, -, -->
0

> <BIOSOLVEIT.INTER_CLASH range: red, yellow, green>
green

> <BIOSOLVEIT.INTRA_CLASH range: red, yellow, green>
green

> <BIOSOLVEIT.LOGP>
2.0474

> <BIOSOLVEIT.MOLECULAR WEIGHT>
414.287

> <BIOSOLVEIT.MOLECULE_CHECKSUM>
LTM0LjQxOTU7MS4yNzQ4

> <BIOSOLVEIT.TORSION_QUALITY range: red, yellow, green, not rotatable>
red

> <BIOSOLVEIT.TPSA>
70.16

> <BIOSOLVEIT.SEESAR_FAVORITE>
favorite

> <smc_score>
0.563

> <QED_score>
0.756

> <distance>
0.732

> <SimilarityPheSA_1>
0.63

> <Smiles>
CC(=O)N1CCN(C(=O)Cc2ccc(Cl)c(Cl)c2)C(CN2CCOC2=O)C1

> <Similarity_SkelSpheres>
0.618

> <Cluster No>
12.0

> <QueryID>
MAT-POS-bb423b95-1

> <SimilarityPheSA>
0.6302

> <Postera series>
3-aminopyridine-like

> <PDB_code>
Mpro-x11542

> <Approach>
DGM_exploratory_RL

> <ID>
20210628_30

> <SimilarityPheSA_2>
0.613

> <OPTIBRIUM.logD>
1.39605

> <OPTIBRIUM.BBB category>
-

> <OPTIBRIUM.logP>
1.39605

> <OPTIBRIUM.P-gp category>
yes

> <OPTIBRIUM.logS>
3.56248

> <OPTIBRIUM.HIA category>
+

> <OPTIBRIUM.PPB90 category>
low

> <OPTIBRIUM.2D6 affinity category>
medium

> <OPTIBRIUM.hERG pIC50>
4.67136

> <OPTIBRIUM.2C9 pKi>
4.76795

> <OPTIBRIUM.BBB log([brain]:[blood])>
-0.889797

> <OPTIBRIUM.logS @ pH7.4>
3.56248

$$$$
Compound 129_1_07
haSeeSAR  07122111353D 1   1.00000     0.00000     0
SeeSAR 11.0.2 hazemaj
 41 43  0  0  0  0            999 V2000
   12.6184    2.5910   23.8162 Cl  0  0  0  0  0  0  0  0  0  0  0  0
   12.0745    1.0925   23.0162 C   0  0  0  0  0  0  0  0  0  0  0  0
   10.7253    0.7410   22.9568 C   0  0  0  0  0  0  0  0  0  0  0  0
   13.0473    0.2656   22.4649 C   0  0  0  0  0  0  0  0  0  0  0  0
    9.7499    1.4620   23.5511 O   0  0  0  0  0  0  0  0  0  0  0  0
   10.3497   -0.4154   22.2837 C   0  0  0  0  0  0  0  0  0  0  0  0
   12.6611   -0.9173   21.8427 C   0  0  0  0  0  0  0  0  0  0  0  0
    8.6416    0.8246   24.1739 C   0  0  0  0  0  0  0  0  0  0  0  0
   11.3162   -1.2553   21.7398 C   0  0  0  0  0  0  0  0  0  0  0  0
    8.8687   -0.7247   22.1889 C   0  0  1  0  0  0  0  0  0  0  0  0
   13.8926   -2.0170   21.1762 Cl  0  0  0  0  0  0  0  0  0  0  0  0
    8.3610   -0.5656   23.6179 C   0  0  1  0  0  0  0  0  0  0  0  0
    8.1509    0.1623   21.1763 C   0  0  0  0  0  0  0  0  0  0  0  0
    8.8744   -1.6421   24.5642 C   0  0  0  0  0  0  0  0  0  0  0  0
    8.7079    1.1672   20.7344 O   0  0  0  0  0  0  0  0  0  0  0  0
    6.9299   -0.1486   20.7729 N   0  0  0  0  0  0  0  0  0  0  0  0
    6.5059    0.2059   19.4858 C   0  0  0  0  0  0  0  0  0  0  0  0
    5.3723    0.8919   19.1660 N   0  0  0  0  0  0  0  0  0  0  0  0
    7.1613   -0.0799   18.3260 C   0  0  0  0  0  0  0  0  0  0  0  0
    5.3270    1.0314   17.8120 C   0  0  0  0  0  0  0  0  0  0  0  0
    4.3682    1.3981   20.1143 C   0  0  0  0  0  0  0  0  0  0  0  0
    6.3959    0.4424   17.3289 N   0  3  0  0  0  0  0  0  0  0  0  0
    4.8814    2.6734   20.7629 C   0  0  0  0  0  0  0  0  0  0  0  0
   14.0135    0.5185   22.5150 H   0  0  0  0  0  0  0  0  0  0  0  0
    7.8297    1.3920   24.0363 H   0  0  0  0  0  0  0  0  0  0  0  0
    8.8298    0.7438   25.1527 H   0  0  0  0  0  0  0  0  0  0  0  0
   11.0447   -2.0989   21.2765 H   0  0  0  0  0  0  0  0  0  0  0  0
    8.7577   -1.6797   21.9139 H   0  0  0  0  0  0  0  0  0  0  0  0
    7.3666   -0.6652   23.5821 H   0  0  0  0  0  0  0  0  0  0  0  0
    8.6797   -2.5444   24.1796 H   0  0  0  0  0  0  0  0  0  0  0  0
    9.8615   -1.5370   24.6846 H   0  0  0  0  0  0  0  0  0  0  0  0
    8.4191   -1.5521   25.4500 H   0  0  0  0  0  0  0  0  0  0  0  0
    6.3096   -0.6368   21.3869 H   0  0  0  0  0  0  0  0  0  0  0  0
    8.0261   -0.5721   18.2275 H   0  0  0  0  0  0  0  0  0  0  0  0
    4.6143    1.4949   17.2856 H   0  0  0  0  0  0  0  0  0  0  0  0
    4.1995    0.7098   20.8200 H   0  0  0  0  0  0  0  0  0  0  0  0
    3.5168    1.5913   19.6268 H   0  0  0  0  0  0  0  0  0  0  0  0
    4.1987    3.0175   21.4076 H   0  0  0  0  0  0  0  0  0  0  0  0
    5.7328    2.4801   21.2505 H   0  0  0  0  0  0  0  0  0  0  0  0
    5.0502    3.3616   20.0573 H   0  0  0  0  0  0  0  0  0  0  0  0
    6.6186    0.3850   16.3557 H   0  0  0  0  0  0  0  0  0  0  0  0
  1  2  1  0  0  0  0
  2  3  2  0  0  0  0
  2  4  1  0  0  0  0
  3  5  1  0  0  0  0
  3  6  1  0  0  0  0
  4  7  2  0  0  0  0
  5  8  1  0  0  0  0
  6  9  2  0  0  0  0
  6 10  1  0  0  0  0
  7 11  1  0  0  0  0
  8 12  1  0  0  0  0
 10 13  1  0  0  0  0
 12 14  1  0  0  0  0
 13 15  2  0  0  0  0
 13 16  1  0  0  0  0
 16 17  1  0  0  0  0
 17 18  1  0  0  0  0
 17 19  2  0  0  0  0
 18 20  1  0  0  0  0
 18 21  1  0  0  0  0
 19 22  1  0  0  0  0
 21 23  1  0  0  0  0
  7  9  1  0  0  0  0
 10 12  1  0  0  0  0
 20 22  2  0  0  0  0
  4 24  1  0  0  0  0
  8 25  1  0  0  0  0
  8 26  1  0  0  0  0
  9 27  1  0  0  0  0
 10 28  1  0  0  0  0
 12 29  1  0  0  0  0
 14 30  1  0  0  0  0
 14 31  1  0  0  0  0
 14 32  1  0  0  0  0
 16 33  1  0  0  0  0
 19 34  1  0  0  0  0
 20 35  1  0  0  0  0
 21 36  1  0  0  0  0
 21 37  1  0  0  0  0
 23 38  1  0  0  0  0
 23 39  1  0  0  0  0
 23 40  1  0  0  0  0
 22 41  1  0  0  0  0
M  CHG  1  22   1
M  END
> <BIOSOLVEIT.HYDE_ESTIMATED_AFFINITY_LOWER_BOUNDARY [nM]>
113.267435

> <BIOSOLVEIT.HYDE_ESTIMATED_AFFINITY_UPPER_BOUNDARY [nM]>
11253.789345

> <BIOSOLVEIT.HYDE_LIGAND_EFFICIENCY range: ++, +, 0, -, -->
0

> <BIOSOLVEIT.HYDE_LIGAND_LIPOPHILIC_EFFICIENCY range: ++, +, 0, -, -->
-

> <BIOSOLVEIT.INTER_CLASH range: red, yellow, green>
yellow

> <BIOSOLVEIT.INTRA_CLASH range: red, yellow, green>
green

> <BIOSOLVEIT.LOGP>
3.3797

> <BIOSOLVEIT.MOLECULAR WEIGHT>
355.243

> <BIOSOLVEIT.MOLECULE_CHECKSUM>
LTMzLjk0NzI7MS40NzU5Nw==

> <BIOSOLVEIT.TORSION_QUALITY range: red, yellow, green, not rotatable>
green

> <BIOSOLVEIT.TPSA>
57.4

> <BIOSOLVEIT.SEESAR_FAVORITE>
favorite

> <smc_score>
1.0

> <QED_score>
0.908

> <distance>
0.569

> <SimilarityPheSA_1>
0.705

> <Smiles>
CCn1cncc1NC(=O)C1c2cc(Cl)cc(Cl)c2OCC1C

> <Similarity_SkelSpheres>
0.646

> <Cluster No>
61.0

> <QueryID>
JAG-UCB-a3ef7265-20

> <SimilarityPheSA>
0.7047

> <Postera series>
3-aminopyridine-like

> <PDB_code>
Mpro-x10324

> <Approach>
DGM_focussed_RL

> <ID>
20210618_128

> <SimilarityPheSA_2>
0.826

> <OPTIBRIUM.logD>
3.837

> <OPTIBRIUM.BBB category>
-

> <OPTIBRIUM.logP>
3.837

> <OPTIBRIUM.P-gp category>
no

> <OPTIBRIUM.logS>
1.37148

> <OPTIBRIUM.HIA category>
+

> <OPTIBRIUM.PPB90 category>
high

> <OPTIBRIUM.2D6 affinity category>
high

> <OPTIBRIUM.hERG pIC50>
4.74232

> <OPTIBRIUM.2C9 pKi>
5.24386

> <OPTIBRIUM.BBB log([brain]:[blood])>
-0.0576938

> <OPTIBRIUM.logS @ pH7.4>
1.37148

$$$$
Compound 129_1_04
haSeeSAR  07122111353D 1   1.00000     0.00000     0
SeeSAR 11.0.2 hazemaj
 40 42  0  0  0  0            999 V2000
   12.6084    2.6316   23.8016 Cl  0  0  0  0  0  0  0  0  0  0  0  0
   12.0668    1.1165   23.0316 C   0  0  0  0  0  0  0  0  0  0  0  0
   10.7188    0.7586   22.9851 C   0  0  0  0  0  0  0  0  0  0  0  0
   13.0405    0.2837   22.4907 C   0  0  0  0  0  0  0  0  0  0  0  0
    9.7434    1.4863   23.5708 O   0  0  0  0  0  0  0  0  0  0  0  0
   10.3449   -0.4113   22.3348 C   0  0  0  0  0  0  0  0  0  0  0  0
   12.6561   -0.9119   21.8920 C   0  0  0  0  0  0  0  0  0  0  0  0
    8.6406    0.8559   24.2104 C   0  0  0  0  0  0  0  0  0  0  0  0
   11.3122   -1.2571   21.8016 C   0  0  0  0  0  0  0  0  0  0  0  0
    8.8647   -0.7282   22.2528 C   0  0  1  0  0  0  0  0  0  0  0  0
   13.8890   -2.0186   21.2396 Cl  0  0  0  0  0  0  0  0  0  0  0  0
    8.3631   -0.5452   23.6811 C   0  0  1  0  0  0  0  0  0  0  0  0
    8.1385    0.1373   21.2277 C   0  0  0  0  0  0  0  0  0  0  0  0
    8.8853   -1.6023   24.6442 C   0  0  0  0  0  0  0  0  0  0  0  0
    8.7076    1.1079   20.7280 O   0  0  0  0  0  0  0  0  0  0  0  0
    6.8972   -0.1551   20.8756 N   0  0  0  0  0  0  0  0  0  0  0  0
    6.4416    0.1595   19.5890 C   0  0  0  0  0  0  0  0  0  0  0  0
    5.3358    0.8933   19.2776 N   0  0  0  0  0  0  0  0  0  0  0  0
    7.0319   -0.2206   18.4214 C   0  0  0  0  0  0  0  0  0  0  0  0
    5.2432    0.9683   17.9208 C   0  0  0  0  0  0  0  0  0  0  0  0
    4.4011    1.5027   20.2360 C   0  0  0  0  0  0  0  0  0  0  0  0
    6.2568    0.2954   17.4284 N   0  0  0  0  0  0  0  0  0  0  0  0
    5.0383    2.7393   20.8487 C   0  0  0  0  0  0  0  0  0  0  0  0
   14.0059    0.5413   22.5316 H   0  0  0  0  0  0  0  0  0  0  0  0
    7.8258    1.4175   24.0664 H   0  0  0  0  0  0  0  0  0  0  0  0
    8.8338    0.7937   25.1895 H   0  0  0  0  0  0  0  0  0  0  0  0
   11.0420   -2.1100   21.3550 H   0  0  0  0  0  0  0  0  0  0  0  0
    8.7563   -1.6885   21.9956 H   0  0  0  0  0  0  0  0  0  0  0  0
    7.3690   -0.6494   23.6518 H   0  0  0  0  0  0  0  0  0  0  0  0
    8.6925   -2.5122   24.2770 H   0  0  0  0  0  0  0  0  0  0  0  0
    9.8726   -1.4911   24.7579 H   0  0  0  0  0  0  0  0  0  0  0  0
    8.4338   -1.4979   25.5304 H   0  0  0  0  0  0  0  0  0  0  0  0
    6.2843   -0.6009   21.5281 H   0  0  0  0  0  0  0  0  0  0  0  0
    7.8632   -0.7661   18.3156 H   0  0  0  0  0  0  0  0  0  0  0  0
    4.5365    1.4457   17.3986 H   0  0  0  0  0  0  0  0  0  0  0  0
    4.1882    0.8447   20.9582 H   0  0  0  0  0  0  0  0  0  0  0  0
    3.5595    1.7616   19.7621 H   0  0  0  0  0  0  0  0  0  0  0  0
    4.4029    3.1536   21.5003 H   0  0  0  0  0  0  0  0  0  0  0  0
    5.8800    2.4804   21.3226 H   0  0  0  0  0  0  0  0  0  0  0  0
    5.2513    3.3973   20.1264 H   0  0  0  0  0  0  0  0  0  0  0  0
  1  2  1  0  0  0  0
  2  3  2  0  0  0  0
  2  4  1  0  0  0  0
  3  5  1  0  0  0  0
  3  6  1  0  0  0  0
  4  7  2  0  0  0  0
  5  8  1  0  0  0  0
  6  9  2  0  0  0  0
  6 10  1  0  0  0  0
  7 11  1  0  0  0  0
  8 12  1  0  0  0  0
 10 13  1  0  0  0  0
 12 14  1  0  0  0  0
 13 15  2  0  0  0  0
 13 16  1  0  0  0  0
 16 17  1  0  0  0  0
 17 18  1  0  0  0  0
 17 19  2  0  0  0  0
 18 20  1  0  0  0  0
 18 21  1  0  0  0  0
 19 22  1  0  0  0  0
 21 23  1  0  0  0  0
  7  9  1  0  0  0  0
 10 12  1  0  0  0  0
 20 22  2  0  0  0  0
  4 24  1  0  0  0  0
  8 25  1  0  0  0  0
  8 26  1  0  0  0  0
  9 27  1  0  0  0  0
 10 28  1  0  0  0  0
 12 29  1  0  0  0  0
 14 30  1  0  0  0  0
 14 31  1  0  0  0  0
 14 32  1  0  0  0  0
 16 33  1  0  0  0  0
 19 34  1  0  0  0  0
 20 35  1  0  0  0  0
 21 36  1  0  0  0  0
 21 37  1  0  0  0  0
 23 38  1  0  0  0  0
 23 39  1  0  0  0  0
 23 40  1  0  0  0  0
M  END
> <BIOSOLVEIT.HYDE_ESTIMATED_AFFINITY_LOWER_BOUNDARY [nM]>
124.442972

> <BIOSOLVEIT.HYDE_ESTIMATED_AFFINITY_UPPER_BOUNDARY [nM]>
12364.144996

> <BIOSOLVEIT.HYDE_LIGAND_EFFICIENCY range: ++, +, 0, -, -->
0

> <BIOSOLVEIT.HYDE_LIGAND_LIPOPHILIC_EFFICIENCY range: ++, +, 0, -, -->
--

> <BIOSOLVEIT.INTER_CLASH range: red, yellow, green>
yellow

> <BIOSOLVEIT.INTRA_CLASH range: red, yellow, green>
green

> <BIOSOLVEIT.LOGP>
3.9606

> <BIOSOLVEIT.MOLECULAR WEIGHT>
354.235

> <BIOSOLVEIT.MOLECULE_CHECKSUM>
LTMzLjcxNDsxLjQ2NTgy

> <BIOSOLVEIT.TORSION_QUALITY range: red, yellow, green, not rotatable>
green

> <BIOSOLVEIT.TPSA>
56.15

> <BIOSOLVEIT.SEESAR_FAVORITE>
favorite

> <smc_score>
1.0

> <QED_score>
0.908

> <distance>
0.569

> <SimilarityPheSA_1>
0.705

> <Smiles>
CCn1cncc1NC(=O)C1c2cc(Cl)cc(Cl)c2OCC1C

> <Similarity_SkelSpheres>
0.646

> <Cluster No>
61.0

> <QueryID>
JAG-UCB-a3ef7265-20

> <SimilarityPheSA>
0.7047

> <Postera series>
3-aminopyridine-like

> <PDB_code>
Mpro-x10324

> <Approach>
DGM_focussed_RL

> <ID>
20210618_128

> <SimilarityPheSA_2>
0.826

> <OPTIBRIUM.logD>
3.837

> <OPTIBRIUM.BBB category>
-

> <OPTIBRIUM.logP>
3.837

> <OPTIBRIUM.P-gp category>
no

> <OPTIBRIUM.logS>
1.37148

> <OPTIBRIUM.HIA category>
+

> <OPTIBRIUM.PPB90 category>
high

> <OPTIBRIUM.2D6 affinity category>
high

> <OPTIBRIUM.hERG pIC50>
4.74232

> <OPTIBRIUM.2C9 pKi>
5.24386

> <OPTIBRIUM.BBB log([brain]:[blood])>
-0.0576938

> <OPTIBRIUM.logS @ pH7.4>
1.37148

$$$$
Compound 129_1_08
haSeeSAR  07122111353D 1   1.00000     0.00000     0
SeeSAR 11.0.2 hazemaj
 40 42  0  0  0  0            999 V2000
   12.6087    2.6298   23.8021 Cl  0  0  0  0  0  0  0  0  0  0  0  0
   12.0666    1.1156   23.0308 C   0  0  0  0  0  0  0  0  0  0  0  0
   10.7186    0.7578   22.9847 C   0  0  0  0  0  0  0  0  0  0  0  0
   13.0400    0.2834   22.4884 C   0  0  0  0  0  0  0  0  0  0  0  0
    9.7435    1.4848   23.5719 O   0  0  0  0  0  0  0  0  0  0  0  0
   10.3443   -0.4114   22.3335 C   0  0  0  0  0  0  0  0  0  0  0  0
   12.6553   -0.9115   21.8886 C   0  0  0  0  0  0  0  0  0  0  0  0
    8.6412    0.8538   24.2115 C   0  0  0  0  0  0  0  0  0  0  0  0
   11.3112   -1.2566   21.7987 C   0  0  0  0  0  0  0  0  0  0  0  0
    8.8640   -0.7283   22.2521 C   0  0  1  0  0  0  0  0  0  0  0  0
   13.8878   -2.0175   21.2342 Cl  0  0  0  0  0  0  0  0  0  0  0  0
    8.3634   -0.5469   23.6809 C   0  0  1  0  0  0  0  0  0  0  0  0
    8.1372    0.1384   21.2283 C   0  0  0  0  0  0  0  0  0  0  0  0
    8.8862   -1.6050   24.6426 C   0  0  0  0  0  0  0  0  0  0  0  0
    8.7072    1.1072   20.7266 O   0  0  0  0  0  0  0  0  0  0  0  0
    6.8943   -0.1513   20.8798 N   0  0  0  0  0  0  0  0  0  0  0  0
    6.4358    0.1636   19.5943 C   0  0  0  0  0  0  0  0  0  0  0  0
    5.3312    0.8952   19.2900 N   0  0  0  0  0  0  0  0  0  0  0  0
    7.0219   -0.2149   18.4255 C   0  0  0  0  0  0  0  0  0  0  0  0
    5.2414    0.9631   17.9315 C   0  0  0  0  0  0  0  0  0  0  0  0
    4.3993    1.5046   20.2496 C   0  0  0  0  0  0  0  0  0  0  0  0
    6.2544    0.2970   17.4223 N   0  0  0  0  0  0  0  0  0  0  0  0
    5.0358    2.7444   20.8563 C   0  0  0  0  0  0  0  0  0  0  0  0
   14.0054    0.5410   22.5289 H   0  0  0  0  0  0  0  0  0  0  0  0
    7.8263    1.4154   24.0687 H   0  0  0  0  0  0  0  0  0  0  0  0
    8.8350    0.7904   25.1905 H   0  0  0  0  0  0  0  0  0  0  0  0
   11.0408   -2.1091   21.3514 H   0  0  0  0  0  0  0  0  0  0  0  0
    8.7555   -1.6883   21.9940 H   0  0  0  0  0  0  0  0  0  0  0  0
    7.3692   -0.6511   23.6522 H   0  0  0  0  0  0  0  0  0  0  0  0
    8.6933   -2.5145   24.2745 H   0  0  0  0  0  0  0  0  0  0  0  0
    9.8735   -1.4938   24.7557 H   0  0  0  0  0  0  0  0  0  0  0  0
    8.4353   -1.5017   25.5291 H   0  0  0  0  0  0  0  0  0  0  0  0
    6.2820   -0.5952   21.5342 H   0  0  0  0  0  0  0  0  0  0  0  0
    7.8529   -0.7616   18.3230 H   0  0  0  0  0  0  0  0  0  0  0  0
    4.5295    1.4366   17.4129 H   0  0  0  0  0  0  0  0  0  0  0  0
    4.1908    0.8482   20.9746 H   0  0  0  0  0  0  0  0  0  0  0  0
    3.5551    1.7600   19.7782 H   0  0  0  0  0  0  0  0  0  0  0  0
    4.4018    3.1590   21.5091 H   0  0  0  0  0  0  0  0  0  0  0  0
    5.8800    2.4891   21.3276 H   0  0  0  0  0  0  0  0  0  0  0  0
    5.2443    3.4009   20.1313 H   0  0  0  0  0  0  0  0  0  0  0  0
  1  2  1  0  0  0  0
  2  3  2  0  0  0  0
  2  4  1  0  0  0  0
  3  5  1  0  0  0  0
  3  6  1  0  0  0  0
  4  7  2  0  0  0  0
  5  8  1  0  0  0  0
  6  9  2  0  0  0  0
  6 10  1  0  0  0  0
  7 11  1  0  0  0  0
  8 12  1  0  0  0  0
 10 13  1  0  0  0  0
 12 14  1  0  0  0  0
 13 15  2  0  0  0  0
 13 16  1  0  0  0  0
 16 17  1  0  0  0  0
 17 18  1  0  0  0  0
 17 19  2  0  0  0  0
 18 20  1  0  0  0  0
 18 21  1  0  0  0  0
 19 22  1  0  0  0  0
 21 23  1  0  0  0  0
  7  9  1  0  0  0  0
 10 12  1  0  0  0  0
 20 22  2  0  0  0  0
  4 24  1  0  0  0  0
  8 25  1  0  0  0  0
  8 26  1  0  0  0  0
  9 27  1  0  0  0  0
 10 28  1  0  0  0  0
 12 29  1  0  0  0  0
 14 30  1  0  0  0  0
 14 31  1  0  0  0  0
 14 32  1  0  0  0  0
 16 33  1  0  0  0  0
 19 34  1  0  0  0  0
 20 35  1  0  0  0  0
 21 36  1  0  0  0  0
 21 37  1  0  0  0  0
 23 38  1  0  0  0  0
 23 39  1  0  0  0  0
 23 40  1  0  0  0  0
M  END
> <BIOSOLVEIT.HYDE_ESTIMATED_AFFINITY_LOWER_BOUNDARY [nM]>
128.815408

> <BIOSOLVEIT.HYDE_ESTIMATED_AFFINITY_UPPER_BOUNDARY [nM]>
12798.572382

> <BIOSOLVEIT.HYDE_LIGAND_EFFICIENCY range: ++, +, 0, -, -->
0

> <BIOSOLVEIT.HYDE_LIGAND_LIPOPHILIC_EFFICIENCY range: ++, +, 0, -, -->
--

> <BIOSOLVEIT.INTER_CLASH range: red, yellow, green>
yellow

> <BIOSOLVEIT.INTRA_CLASH range: red, yellow, green>
green

> <BIOSOLVEIT.LOGP>
3.9606

> <BIOSOLVEIT.MOLECULAR WEIGHT>
354.235

> <BIOSOLVEIT.MOLECULE_CHECKSUM>
LTMzLjYyODQ7MS40NjIx

> <BIOSOLVEIT.TORSION_QUALITY range: red, yellow, green, not rotatable>
green

> <BIOSOLVEIT.TPSA>
56.15

> <BIOSOLVEIT.SEESAR_FAVORITE>
favorite

> <smc_score>
1.0

> <QED_score>
0.908

> <distance>
0.569

> <SimilarityPheSA_1>
0.705

> <Smiles>
CCn1cncc1NC(=O)C1c2cc(Cl)cc(Cl)c2OCC1C

> <Similarity_SkelSpheres>
0.646

> <Cluster No>
61.0

> <QueryID>
JAG-UCB-a3ef7265-20

> <SimilarityPheSA>
0.7047

> <Postera series>
3-aminopyridine-like

> <PDB_code>
Mpro-x10324

> <Approach>
DGM_focussed_RL

> <ID>
20210618_128

> <SimilarityPheSA_2>
0.826

> <OPTIBRIUM.logD>
3.837

> <OPTIBRIUM.BBB category>
-

> <OPTIBRIUM.logP>
3.837

> <OPTIBRIUM.P-gp category>
no

> <OPTIBRIUM.logS>
1.37148

> <OPTIBRIUM.HIA category>
+

> <OPTIBRIUM.PPB90 category>
high

> <OPTIBRIUM.2D6 affinity category>
high

> <OPTIBRIUM.hERG pIC50>
4.74232

> <OPTIBRIUM.2C9 pKi>
5.24386

> <OPTIBRIUM.BBB log([brain]:[blood])>
-0.0576938

> <OPTIBRIUM.logS @ pH7.4>
1.37148

$$$$
Compound 129_1_09
haSeeSAR  07122111353D 1   1.00000     0.00000     0
SeeSAR 11.0.2 hazemaj
 40 42  0  0  0  0            999 V2000
   12.5995    2.6430   23.7904 Cl  0  0  0  0  0  0  0  0  0  0  0  0
   12.0650    1.1193   23.0326 C   0  0  0  0  0  0  0  0  0  0  0  0
   10.7181    0.7572   22.9844 C   0  0  0  0  0  0  0  0  0  0  0  0
   13.0430    0.2843   22.5030 C   0  0  0  0  0  0  0  0  0  0  0  0
    9.7385    1.4875   23.5597 O   0  0  0  0  0  0  0  0  0  0  0  0
   10.3499   -0.4198   22.3436 C   0  0  0  0  0  0  0  0  0  0  0  0
   12.6643   -0.9179   21.9139 C   0  0  0  0  0  0  0  0  0  0  0  0
    8.6351    0.8600   24.2011 C   0  0  0  0  0  0  0  0  0  0  0  0
   11.3216   -1.2677   21.8218 C   0  0  0  0  0  0  0  0  0  0  0  0
    8.8709   -0.7416   22.2591 C   0  0  1  0  0  0  0  0  0  0  0  0
   13.9027   -2.0270   21.2763 Cl  0  0  0  0  0  0  0  0  0  0  0  0
    8.3636   -0.5468   23.6837 C   0  0  1  0  0  0  0  0  0  0  0  0
    8.1461    0.1123   21.2233 C   0  0  0  0  0  0  0  0  0  0  0  0
    8.8852   -1.5935   24.6586 C   0  0  0  0  0  0  0  0  0  0  0  0
    8.7141    1.0801   20.7173 O   0  0  0  0  0  0  0  0  0  0  0  0
    6.9072   -0.1873   20.8689 N   0  0  0  0  0  0  0  0  0  0  0  0
    6.4557    0.1142   19.5777 C   0  0  0  0  0  0  0  0  0  0  0  0
    5.3931    0.9044   19.2545 N   0  0  0  0  0  0  0  0  0  0  0  0
    7.0073   -0.3378   18.4168 C   0  0  0  0  0  0  0  0  0  0  0  0
    5.2884    0.9423   17.8971 C   0  0  0  0  0  0  0  0  0  0  0  0
    4.5093    1.5999   20.2025 C   0  0  0  0  0  0  0  0  0  0  0  0
    6.2529    0.1935   17.4160 N   0  0  0  0  0  0  0  0  0  0  0  0
    3.4353    2.3532   19.4348 C   0  0  0  0  0  0  0  0  0  0  0  0
   14.0075    0.5451   22.5450 H   0  0  0  0  0  0  0  0  0  0  0  0
    7.8193    1.4178   24.0489 H   0  0  0  0  0  0  0  0  0  0  0  0
    8.8248    0.8073   25.1815 H   0  0  0  0  0  0  0  0  0  0  0  0
   11.0554   -2.1255   21.3822 H   0  0  0  0  0  0  0  0  0  0  0  0
    8.7663   -1.7045   22.0105 H   0  0  0  0  0  0  0  0  0  0  0  0
    7.3699   -0.6542   23.6519 H   0  0  0  0  0  0  0  0  0  0  0  0
    8.6963   -2.5073   24.2991 H   0  0  0  0  0  0  0  0  0  0  0  0
    9.8716   -1.4784   24.7749 H   0  0  0  0  0  0  0  0  0  0  0  0
    8.4302   -1.4823   25.5421 H   0  0  0  0  0  0  0  0  0  0  0  0
    6.2930   -0.6292   21.5229 H   0  0  0  0  0  0  0  0  0  0  0  0
    7.8025   -0.9364   18.3199 H   0  0  0  0  0  0  0  0  0  0  0  0
    4.6058    1.4457   17.3673 H   0  0  0  0  0  0  0  0  0  0  0  0
    5.0457    2.2456   20.7460 H   0  0  0  0  0  0  0  0  0  0  0  0
    4.0786    0.9312   20.8088 H   0  0  0  0  0  0  0  0  0  0  0  0
    2.8345    2.8260   20.0794 H   0  0  0  0  0  0  0  0  0  0  0  0
    3.8659    3.0219   18.8287 H   0  0  0  0  0  0  0  0  0  0  0  0
    2.8990    1.7074   18.8914 H   0  0  0  0  0  0  0  0  0  0  0  0
  1  2  1  0  0  0  0
  2  3  2  0  0  0  0
  2  4  1  0  0  0  0
  3  5  1  0  0  0  0
  3  6  1  0  0  0  0
  4  7  2  0  0  0  0
  5  8  1  0  0  0  0
  6  9  2  0  0  0  0
  6 10  1  0  0  0  0
  7 11  1  0  0  0  0
  8 12  1  0  0  0  0
 10 13  1  0  0  0  0
 12 14  1  0  0  0  0
 13 15  2  0  0  0  0
 13 16  1  0  0  0  0
 16 17  1  0  0  0  0
 17 18  1  0  0  0  0
 17 19  2  0  0  0  0
 18 20  1  0  0  0  0
 18 21  1  0  0  0  0
 19 22  1  0  0  0  0
 21 23  1  0  0  0  0
  7  9  1  0  0  0  0
 10 12  1  0  0  0  0
 20 22  2  0  0  0  0
  4 24  1  0  0  0  0
  8 25  1  0  0  0  0
  8 26  1  0  0  0  0
  9 27  1  0  0  0  0
 10 28  1  0  0  0  0
 12 29  1  0  0  0  0
 14 30  1  0  0  0  0
 14 31  1  0  0  0  0
 14 32  1  0  0  0  0
 16 33  1  0  0  0  0
 19 34  1  0  0  0  0
 20 35  1  0  0  0  0
 21 36  1  0  0  0  0
 21 37  1  0  0  0  0
 23 38  1  0  0  0  0
 23 39  1  0  0  0  0
 23 40  1  0  0  0  0
M  END
> <BIOSOLVEIT.HYDE_ESTIMATED_AFFINITY_LOWER_BOUNDARY [nM]>
175.518350

> <BIOSOLVEIT.HYDE_ESTIMATED_AFFINITY_UPPER_BOUNDARY [nM]>
17438.785828

> <BIOSOLVEIT.HYDE_LIGAND_EFFICIENCY range: ++, +, 0, -, -->
0

> <BIOSOLVEIT.HYDE_LIGAND_LIPOPHILIC_EFFICIENCY range: ++, +, 0, -, -->
--

> <BIOSOLVEIT.INTER_CLASH range: red, yellow, green>
yellow

> <BIOSOLVEIT.INTRA_CLASH range: red, yellow, green>
green

> <BIOSOLVEIT.LOGP>
3.9606

> <BIOSOLVEIT.MOLECULAR WEIGHT>
354.235

> <BIOSOLVEIT.MOLECULE_CHECKSUM>
LTMyLjg2MTU7MS40Mjg3Ng==

> <BIOSOLVEIT.TORSION_QUALITY range: red, yellow, green, not rotatable>
yellow

> <BIOSOLVEIT.TPSA>
56.15

> <BIOSOLVEIT.SEESAR_FAVORITE>
favorite

> <smc_score>
1.0

> <QED_score>
0.908

> <distance>
0.569

> <SimilarityPheSA_1>
0.705

> <Smiles>
CCn1cncc1NC(=O)C1c2cc(Cl)cc(Cl)c2OCC1C

> <Similarity_SkelSpheres>
0.646

> <Cluster No>
61.0

> <QueryID>
JAG-UCB-a3ef7265-20

> <SimilarityPheSA>
0.7047

> <Postera series>
3-aminopyridine-like

> <PDB_code>
Mpro-x10324

> <Approach>
DGM_focussed_RL

> <ID>
20210618_128

> <SimilarityPheSA_2>
0.826

> <OPTIBRIUM.logD>
3.837

> <OPTIBRIUM.BBB category>
-

> <OPTIBRIUM.logP>
3.837

> <OPTIBRIUM.P-gp category>
no

> <OPTIBRIUM.logS>
1.37148

> <OPTIBRIUM.HIA category>
+

> <OPTIBRIUM.PPB90 category>
high

> <OPTIBRIUM.2D6 affinity category>
high

> <OPTIBRIUM.hERG pIC50>
4.74232

> <OPTIBRIUM.2C9 pKi>
5.24386

> <OPTIBRIUM.BBB log([brain]:[blood])>
-0.0576938

> <OPTIBRIUM.logS @ pH7.4>
1.37148

$$$$
Compound 760_1_04
haSeeSAR  07122111353D 1   1.00000     0.00000     0
SeeSAR 11.0.2 hazemaj
 48 50  0  0  0  0            999 V2000
   13.5409    1.1110   23.0662 Cl  0  0  0  0  0  0  0  0  0  0  0  0
   12.0255    0.2413   22.7278 C   0  0  0  0  0  0  0  0  0  0  0  0
   12.0719   -1.0424   22.1941 C   0  0  0  0  0  0  0  0  0  0  0  0
   10.8035    0.8476   22.9983 C   0  0  0  0  0  0  0  0  0  0  0  0
   13.6423   -1.8080   21.8530 Cl  0  0  0  0  0  0  0  0  0  0  0  0
   10.8993   -1.7393   21.9212 C   0  0  0  0  0  0  0  0  0  0  0  0
    9.6338    0.1474   22.7245 C   0  0  0  0  0  0  0  0  0  0  0  0
    9.6746   -1.1362   22.1901 C   0  0  0  0  0  0  0  0  0  0  0  0
    8.2957    0.8064   23.0182 C   0  0  0  0  0  0  0  0  0  0  0  0
    7.6797    1.3030   21.7203 C   0  0  0  0  0  0  0  0  0  0  0  0
    8.3503    1.9786   20.9398 O   0  0  0  0  0  0  0  0  0  0  0  0
    6.3493    0.9919   21.4125 N   0  0  0  0  0  0  0  0  0  0  0  0
    5.3635    1.9759   20.9515 C   0  0  1  0  0  0  0  0  0  0  0  0
    5.7798   -0.3568   21.5092 C   0  0  0  0  0  0  0  0  0  0  0  0
    4.4169    1.2013   20.0651 C   0  0  0  0  0  0  0  0  0  0  0  0
    4.5754    2.5213   22.1315 C   0  0  0  0  0  0  0  0  0  0  0  0
    5.7527   -0.8459   20.0747 C   0  0  0  0  0  0  0  0  0  0  0  0
    5.2870    0.3021   19.2989 N   0  0  0  0  0  0  0  0  0  0  0  0
    4.5282    3.9945   22.0531 N   0  0  0  0  0  0  0  0  0  0  0  0
    5.6525    0.5247   17.9659 C   0  0  0  0  0  0  0  0  0  0  0  0
    5.5916    4.8853   22.1949 C   0  0  0  0  0  0  0  0  0  0  0  0
    3.3365    4.7953   21.7850 C   0  0  0  0  0  0  0  0  0  0  0  0
    6.1849   -0.3745   17.3152 O   0  0  0  0  0  0  0  0  0  0  0  0
    5.3918    1.8767   17.3221 C   0  0  0  0  0  0  0  0  0  0  0  0
    6.7580    4.5550   22.3153 O   0  0  0  0  0  0  0  0  0  0  0  0
    5.1713    6.1596   22.2071 O   0  0  0  0  0  0  0  0  0  0  0  0
    3.7565    6.1865   22.2265 C   0  0  0  0  0  0  0  0  0  0  0  0
   10.7668    1.7701   23.3825 H   0  0  0  0  0  0  0  0  0  0  0  0
   10.9361   -2.6617   21.5368 H   0  0  0  0  0  0  0  0  0  0  0  0
    8.8236   -1.6256   21.9990 H   0  0  0  0  0  0  0  0  0  0  0  0
    8.4334    1.5784   23.6387 H   0  0  0  0  0  0  0  0  0  0  0  0
    7.6829    0.1411   23.4447 H   0  0  0  0  0  0  0  0  0  0  0  0
    5.8057    2.7152   20.4438 H   0  0  0  0  0  0  0  0  0  0  0  0
    4.8564   -0.3263   21.8920 H   0  0  0  0  0  0  0  0  0  0  0  0
    6.3560   -0.9464   22.0751 H   0  0  0  0  0  0  0  0  0  0  0  0
    3.9197    1.8177   19.4544 H   0  0  0  0  0  0  0  0  0  0  0  0
    3.7648    0.6792   20.6148 H   0  0  0  0  0  0  0  0  0  0  0  0
    5.0197    2.2470   22.9844 H   0  0  0  0  0  0  0  0  0  0  0  0
    3.6447    2.1563   22.1081 H   0  0  0  0  0  0  0  0  0  0  0  0
    5.1227   -1.6164   19.9768 H   0  0  0  0  0  0  0  0  0  0  0  0
    6.6670   -1.1234   19.7795 H   0  0  0  0  0  0  0  0  0  0  0  0
    2.5561    4.4688   22.3182 H   0  0  0  0  0  0  0  0  0  0  0  0
    3.1049    4.7813   20.8122 H   0  0  0  0  0  0  0  0  0  0  0  0
    5.7122    1.8622   16.3749 H   0  0  0  0  0  0  0  0  0  0  0  0
    4.4109    2.0705   17.3393 H   0  0  0  0  0  0  0  0  0  0  0  0
    5.8809    2.5869   17.8285 H   0  0  0  0  0  0  0  0  0  0  0  0
    3.4204    6.3801   23.1482 H   0  0  0  0  0  0  0  0  0  0  0  0
    3.4085    6.8774   21.5929 H   0  0  0  0  0  0  0  0  0  0  0  0
  1  2  1  0  0  0  0
  2  3  2  0  0  0  0
  2  4  1  0  0  0  0
  3  5  1  0  0  0  0
  3  6  1  0  0  0  0
  4  7  2  0  0  0  0
  6  8  2  0  0  0  0
  7  9  1  0  0  0  0
  9 10  1  0  0  0  0
 10 11  2  0  0  0  0
 10 12  1  0  0  0  0
 12 13  1  0  0  0  0
 12 14  1  0  0  0  0
 13 15  1  0  0  0  0
 13 16  1  0  0  0  0
 14 17  1  0  0  0  0
 15 18  1  0  0  0  0
 16 19  1  0  0  0  0
 18 20  1  0  0  0  0
 19 21  1  0  0  0  0
 19 22  1  0  0  0  0
 20 23  2  0  0  0  0
 20 24  1  0  0  0  0
 21 25  2  0  0  0  0
 21 26  1  0  0  0  0
 22 27  1  0  0  0  0
  7  8  1  0  0  0  0
 17 18  1  0  0  0  0
 26 27  1  0  0  0  0
  4 28  1  0  0  0  0
  6 29  1  0  0  0  0
  8 30  1  0  0  0  0
  9 31  1  0  0  0  0
  9 32  1  0  0  0  0
 13 33  1  0  0  0  0
 14 34  1  0  0  0  0
 14 35  1  0  0  0  0
 15 36  1  0  0  0  0
 15 37  1  0  0  0  0
 16 38  1  0  0  0  0
 16 39  1  0  0  0  0
 17 40  1  0  0  0  0
 17 41  1  0  0  0  0
 22 42  1  0  0  0  0
 22 43  1  0  0  0  0
 24 44  1  0  0  0  0
 24 45  1  0  0  0  0
 24 46  1  0  0  0  0
 27 47  1  0  0  0  0
 27 48  1  0  0  0  0
M  END
> <BIOSOLVEIT.HYDE_ESTIMATED_AFFINITY_LOWER_BOUNDARY [nM]>
177.474383

> <BIOSOLVEIT.HYDE_ESTIMATED_AFFINITY_UPPER_BOUNDARY [nM]>
17633.129276

> <BIOSOLVEIT.HYDE_LIGAND_EFFICIENCY range: ++, +, 0, -, -->
-

> <BIOSOLVEIT.HYDE_LIGAND_LIPOPHILIC_EFFICIENCY range: ++, +, 0, -, -->
0

> <BIOSOLVEIT.INTER_CLASH range: red, yellow, green>
green

> <BIOSOLVEIT.INTRA_CLASH range: red, yellow, green>
green

> <BIOSOLVEIT.LOGP>
2.0474

> <BIOSOLVEIT.MOLECULAR WEIGHT>
414.287

> <BIOSOLVEIT.MOLECULE_CHECKSUM>
LTMyLjgzNDsxLjIxNjA3

> <BIOSOLVEIT.TORSION_QUALITY range: red, yellow, green, not rotatable>
red

> <BIOSOLVEIT.TPSA>
70.16

> <BIOSOLVEIT.SEESAR_FAVORITE>
favorite

> <smc_score>
0.563

> <QED_score>
0.756

> <distance>
0.732

> <SimilarityPheSA_1>
0.63

> <Smiles>
CC(=O)N1CCN(C(=O)Cc2ccc(Cl)c(Cl)c2)C(CN2CCOC2=O)C1

> <Similarity_SkelSpheres>
0.618

> <Cluster No>
12.0

> <QueryID>
MAT-POS-bb423b95-1

> <SimilarityPheSA>
0.6302

> <Postera series>
3-aminopyridine-like

> <PDB_code>
Mpro-x11542

> <Approach>
DGM_exploratory_RL

> <ID>
20210628_30

> <SimilarityPheSA_2>
0.613

> <OPTIBRIUM.logD>
1.39605

> <OPTIBRIUM.BBB category>
-

> <OPTIBRIUM.logP>
1.39605

> <OPTIBRIUM.P-gp category>
yes

> <OPTIBRIUM.logS>
3.56248

> <OPTIBRIUM.HIA category>
+

> <OPTIBRIUM.PPB90 category>
low

> <OPTIBRIUM.2D6 affinity category>
medium

> <OPTIBRIUM.hERG pIC50>
4.67136

> <OPTIBRIUM.2C9 pKi>
4.76795

> <OPTIBRIUM.BBB log([brain]:[blood])>
-0.889797

> <OPTIBRIUM.logS @ pH7.4>
3.56248

$$$$
Compound 287_1_2
haSeeSAR  07122111353D 1   1.00000     0.00000     0
SeeSAR 11.0.2 hazemaj
 46 49  0  0  0  0            999 V2000
   13.9560    0.1060   23.9999 Cl  0  0  0  0  0  0  0  0  0  0  0  0
   12.2270    0.0872   23.5781 C   0  0  0  0  0  0  0  0  0  0  0  0
   11.8348   -0.4230   22.3469 C   0  0  0  0  0  0  0  0  0  0  0  0
   11.2583    0.5719   24.4497 C   0  0  0  0  0  0  0  0  0  0  0  0
   13.0361   -1.0597   21.1998 Cl  0  0  0  0  0  0  0  0  0  0  0  0
   10.4955   -0.4501   21.9781 C   0  0  0  0  0  0  0  0  0  0  0  0
    9.9136    0.5508   24.1022 C   0  0  0  0  0  0  0  0  0  0  0  0
    9.5531    0.0444   22.8724 C   0  0  0  0  0  0  0  0  0  0  0  0
    8.7651    0.9750   24.7679 N   0  0  0  0  0  0  0  0  0  0  0  0
    8.0466    0.1487   22.7487 C   0  0  1  0  0  0  0  0  0  0  0  0
    8.6099    1.0992   26.2241 C   0  0  0  0  0  0  0  0  0  0  0  0
    7.7410    1.2274   23.7642 C   0  0  0  0  0  0  0  0  0  0  0  0
    7.6200    0.5564   21.3478 C   0  0  0  0  0  0  0  0  0  0  0  0
    7.1371    1.1493   26.5834 C   0  0  0  0  0  0  0  0  0  0  0  0
    9.0785   -0.1593   26.9264 C   0  0  0  0  0  0  0  0  0  0  0  0
    8.2741    1.3920   20.7240 O   0  0  0  0  0  0  0  0  0  0  0  0
    6.5457    0.0132   20.7991 N   0  0  0  0  0  0  0  0  0  0  0  0
    7.0177    0.4361   27.9159 C   0  0  0  0  0  0  0  0  0  0  0  0
    8.4130   -0.0185   28.2830 C   0  0  0  0  0  0  0  0  0  0  0  0
    6.0825    0.4749   19.5620 C   0  0  0  0  0  0  0  0  0  0  0  0
    5.8387   -1.0755   21.4888 C   0  0  0  0  0  0  0  0  0  0  0  0
    6.5614   -0.0671   18.3746 C   0  0  0  0  0  0  0  0  0  0  0  0
    5.1348    1.4875   19.4632 C   0  0  0  0  0  0  0  0  0  0  0  0
    6.1221    0.3724   17.1868 N   0  0  0  0  0  0  0  0  0  0  0  0
    4.7214    1.8978   18.2552 N   0  0  0  0  0  0  0  0  0  0  0  0
    5.2058    1.3507   17.1306 C   0  0  0  0  0  0  0  0  0  0  0  0
   11.5331    0.9403   25.3378 H   0  0  0  0  0  0  0  0  0  0  0  0
   10.2162   -0.8167   21.0907 H   0  0  0  0  0  0  0  0  0  0  0  0
    7.6124   -0.7133   23.0109 H   0  0  0  0  0  0  0  0  0  0  0  0
    9.0919    1.9044   26.5697 H   0  0  0  0  0  0  0  0  0  0  0  0
    7.8350    2.1406   23.3674 H   0  0  0  0  0  0  0  0  0  0  0  0
    6.8223    1.1222   24.1445 H   0  0  0  0  0  0  0  0  0  0  0  0
    6.5920    0.6821   25.8873 H   0  0  0  0  0  0  0  0  0  0  0  0
    6.8301    2.0975   26.6662 H   0  0  0  0  0  0  0  0  0  0  0  0
   10.0749   -0.1812   27.0093 H   0  0  0  0  0  0  0  0  0  0  0  0
    8.7655   -0.9809   26.4500 H   0  0  0  0  0  0  0  0  0  0  0  0
    6.4076   -0.3519   27.8330 H   0  0  0  0  0  0  0  0  0  0  0  0
    6.6630    1.0605   28.6119 H   0  0  0  0  0  0  0  0  0  0  0  0
    8.8795    0.6641   28.8455 H   0  0  0  0  0  0  0  0  0  0  0  0
    8.3925   -0.8927   28.7682 H   0  0  0  0  0  0  0  0  0  0  0  0
    5.0561   -1.3662   20.9383 H   0  0  0  0  0  0  0  0  0  0  0  0
    6.4608   -1.8478   21.6180 H   0  0  0  0  0  0  0  0  0  0  0  0
    5.5181   -0.7531   22.3796 H   0  0  0  0  0  0  0  0  0  0  0  0
    7.2446   -0.7966   18.4072 H   0  0  0  0  0  0  0  0  0  0  0  0
    4.7625    1.9084   20.2903 H   0  0  0  0  0  0  0  0  0  0  0  0
    4.8810    1.6749   16.2422 H   0  0  0  0  0  0  0  0  0  0  0  0
  1  2  1  0  0  0  0
  2  3  2  0  0  0  0
  2  4  1  0  0  0  0
  3  5  1  0  0  0  0
  3  6  1  0  0  0  0
  4  7  2  0  0  0  0
  6  8  2  0  0  0  0
  7  9  1  0  0  0  0
  8 10  1  0  0  0  0
  9 11  1  0  0  0  0
  9 12  1  0  0  0  0
 10 13  1  0  0  0  0
 11 14  1  0  0  0  0
 11 15  1  0  0  0  0
 13 16  2  0  0  0  0
 13 17  1  0  0  0  0
 14 18  1  0  0  0  0
 15 19  1  0  0  0  0
 17 20  1  0  0  0  0
 17 21  1  0  0  0  0
 20 22  2  0  0  0  0
 20 23  1  0  0  0  0
 22 24  1  0  0  0  0
 23 25  2  0  0  0  0
 24 26  2  0  0  0  0
  7  8  1  0  0  0  0
 10 12  1  0  0  0  0
 18 19  1  0  0  0  0
 25 26  1  0  0  0  0
  4 27  1  0  0  0  0
  6 28  1  0  0  0  0
 10 29  1  0  0  0  0
 11 30  1  0  0  0  0
 12 31  1  0  0  0  0
 12 32  1  0  0  0  0
 14 33  1  0  0  0  0
 14 34  1  0  0  0  0
 15 35  1  0  0  0  0
 15 36  1  0  0  0  0
 18 37  1  0  0  0  0
 18 38  1  0  0  0  0
 19 39  1  0  0  0  0
 19 40  1  0  0  0  0
 21 41  1  0  0  0  0
 21 42  1  0  0  0  0
 21 43  1  0  0  0  0
 22 44  1  0  0  0  0
 23 45  1  0  0  0  0
 26 46  1  0  0  0  0
M  END
> <BIOSOLVEIT.HYDE_ESTIMATED_AFFINITY_LOWER_BOUNDARY [nM]>
180.068178

> <BIOSOLVEIT.HYDE_ESTIMATED_AFFINITY_UPPER_BOUNDARY [nM]>
17890.838172

> <BIOSOLVEIT.HYDE_LIGAND_EFFICIENCY range: ++, +, 0, -, -->
0

> <BIOSOLVEIT.HYDE_LIGAND_LIPOPHILIC_EFFICIENCY range: ++, +, 0, -, -->
--

> <BIOSOLVEIT.INTER_CLASH range: red, yellow, green>
red

> <BIOSOLVEIT.INTRA_CLASH range: red, yellow, green>
green

> <BIOSOLVEIT.LOGP>
4.2926

> <BIOSOLVEIT.MOLECULAR WEIGHT>
391.3

> <BIOSOLVEIT.MOLECULE_CHECKSUM>
LTMyLjc5ODsxLjI2MTQ2

> <BIOSOLVEIT.TORSION_QUALITY range: red, yellow, green, not rotatable>
yellow

> <BIOSOLVEIT.TPSA>
49.33

> <BIOSOLVEIT.SEESAR_FAVORITE>
favorite

> <smc_score>
0.75

> <QED_score>
0.783

> <distance>
0.708

> <SimilarityPheSA_1>
0.678

> <Smiles>
CN(C(=O)C1CN(C2CCCC2)c2cc(Cl)c(Cl)cc21)c1cncnc1

> <Similarity_SkelSpheres>
0.635

> <Cluster No>
142.0

> <QueryID>
JAG-UCB-a3ef7265-20

> <SimilarityPheSA>
0.6784

> <Postera series>
3-aminopyridine-like

> <PDB_code>
Mpro-x10324

> <Approach>
DGM_focussed_RL

> <ID>
20210618_286

> <SimilarityPheSA_2>
0.698

> <OPTIBRIUM.logD>
2.42972

> <OPTIBRIUM.BBB category>
-

> <OPTIBRIUM.logP>
3.99753

> <OPTIBRIUM.P-gp category>
yes

> <OPTIBRIUM.logS>
1.01777

> <OPTIBRIUM.HIA category>
+

> <OPTIBRIUM.PPB90 category>
high

> <OPTIBRIUM.2D6 affinity category>
medium

> <OPTIBRIUM.hERG pIC50>
5.74242

> <OPTIBRIUM.2C9 pKi>
5.1131

> <OPTIBRIUM.BBB log([brain]:[blood])>
0.0668956

> <OPTIBRIUM.logS @ pH7.4>
0.895809

$$$$
Compound 82_1_04
haSeeSAR  07122111353D 1   1.00000     0.00000     0
SeeSAR 11.0.2 hazemaj
 34 37  0  0  0  0            999 V2000
   13.5814   -1.8724   21.3123 Cl  0  0  0  0  0  0  0  0  0  0  0  0
   12.1964   -1.0569   22.0774 C   0  0  0  0  0  0  0  0  0  0  0  0
   12.4135   -0.1527   23.1092 C   0  0  0  0  0  0  0  0  0  0  0  0
   10.9019   -1.3218   21.6505 C   0  0  0  0  0  0  0  0  0  0  0  0
   14.0689    0.1900   23.6612 Cl  0  0  0  0  0  0  0  0  0  0  0  0
   11.3611    0.5045   23.7346 C   0  0  0  0  0  0  0  0  0  0  0  0
    9.8604   -0.6571   22.2866 C   0  0  0  0  0  0  0  0  0  0  0  0
   10.0694    0.2375   23.3010 C   0  0  0  0  0  0  0  0  0  0  0  0
    8.3661   -0.4249   22.4130 C   0  0  1  0  0  0  0  0  0  0  0  0
    8.6115    0.5500   23.5337 C   0  0  0  0  0  0  0  0  0  0  0  0
    7.7743    0.2948   21.2093 C   0  0  0  0  0  0  0  0  0  0  0  0
    8.3374    1.2872   20.7475 O   0  0  0  0  0  0  0  0  0  0  0  0
    6.6548   -0.1463   20.6594 N   0  0  0  0  0  0  0  0  0  0  0  0
    6.1111    0.5148   19.5537 C   0  0  0  0  0  0  0  0  0  0  0  0
    4.9429    1.2534   19.7146 C   0  0  0  0  0  0  0  0  0  0  0  0
    6.7443    0.4200   18.3180 C   0  0  0  0  0  0  0  0  0  0  0  0
    4.1338    1.5096   20.7614 O   0  0  0  0  0  0  0  0  0  0  0  0
    4.4764    1.8537   18.5690 C   0  0  0  0  0  0  0  0  0  0  0  0
    6.2391    1.0409   17.2423 N   0  0  0  0  0  0  0  0  0  0  0  0
    3.3929    2.6764   20.4746 C   0  0  0  0  0  0  0  0  0  0  0  0
    5.1110    1.7597   17.3339 C   0  0  0  0  0  0  0  0  0  0  0  0
    3.1958    2.5410   18.9798 C   0  0  0  0  0  0  0  0  0  0  0  0
   10.7249   -1.9696   20.9096 H   0  0  0  0  0  0  0  0  0  0  0  0
   11.5295    1.1527   24.4773 H   0  0  0  0  0  0  0  0  0  0  0  0
    7.8532   -1.2375   22.6898 H   0  0  0  0  0  0  0  0  0  0  0  0
    8.3422    1.4942   23.3443 H   0  0  0  0  0  0  0  0  0  0  0  0
    8.2532    0.2737   24.4255 H   0  0  0  0  0  0  0  0  0  0  0  0
    6.1973   -0.9525   21.0347 H   0  0  0  0  0  0  0  0  0  0  0  0
    7.5839   -0.1162   18.2315 H   0  0  0  0  0  0  0  0  0  0  0  0
    3.9079    3.5027   20.7028 H   0  0  0  0  0  0  0  0  0  0  0  0
    2.5187    2.6838   20.9600 H   0  0  0  0  0  0  0  0  0  0  0  0
    4.7329    2.2193   16.5303 H   0  0  0  0  0  0  0  0  0  0  0  0
    2.3956    1.9807   18.7660 H   0  0  0  0  0  0  0  0  0  0  0  0
    3.1038    3.4348   18.5410 H   0  0  0  0  0  0  0  0  0  0  0  0
  1  2  1  0  0  0  0
  2  3  2  0  0  0  0
  2  4  1  0  0  0  0
  3  5  1  0  0  0  0
  3  6  1  0  0  0  0
  4  7  2  0  0  0  0
  6  8  2  0  0  0  0
  7  9  1  0  0  0  0
  8 10  1  0  0  0  0
  9 11  1  0  0  0  0
 11 12  2  0  0  0  0
 11 13  1  0  0  0  0
 13 14  1  0  0  0  0
 14 15  2  0  0  0  0
 14 16  1  0  0  0  0
 15 17  1  0  0  0  0
 15 18  1  0  0  0  0
 16 19  2  0  0  0  0
 17 20  1  0  0  0  0
 18 21  2  0  0  0  0
 18 22  1  0  0  0  0
  7  8  1  0  0  0  0
  9 10  1  0  0  0  0
 19 21  1  0  0  0  0
 20 22  1  0  0  0  0
  4 23  1  0  0  0  0
  6 24  1  0  0  0  0
  9 25  1  0  0  0  0
 10 26  1  0  0  0  0
 10 27  1  0  0  0  0
 13 28  1  0  0  0  0
 16 29  1  0  0  0  0
 20 30  1  0  0  0  0
 20 31  1  0  0  0  0
 21 32  1  0  0  0  0
 22 33  1  0  0  0  0
 22 34  1  0  0  0  0
M  END
> <BIOSOLVEIT.HYDE_ESTIMATED_AFFINITY_LOWER_BOUNDARY [nM]>
198.575858

> <BIOSOLVEIT.HYDE_ESTIMATED_AFFINITY_UPPER_BOUNDARY [nM]>
19729.685591

> <BIOSOLVEIT.HYDE_LIGAND_EFFICIENCY range: ++, +, 0, -, -->
0

> <BIOSOLVEIT.HYDE_LIGAND_LIPOPHILIC_EFFICIENCY range: ++, +, 0, -, -->
-

> <BIOSOLVEIT.INTER_CLASH range: red, yellow, green>
red

> <BIOSOLVEIT.INTRA_CLASH range: red, yellow, green>
green

> <BIOSOLVEIT.LOGP>
3.6017

> <BIOSOLVEIT.MOLECULAR WEIGHT>
335.189

> <BIOSOLVEIT.MOLECULE_CHECKSUM>
LTMyLjU1NTU7MS40Nzk4

> <BIOSOLVEIT.TORSION_QUALITY range: red, yellow, green, not rotatable>
green

> <BIOSOLVEIT.TPSA>
51.22

> <BIOSOLVEIT.SEESAR_FAVORITE>
favorite

> <smc_score>
0.563

> <QED_score>
0.912

> <distance>
0.54

> <SimilarityPheSA_1>
0.693

> <Smiles>
O=C(Nc1cncc2c1OCC2)C1Cc2cc(Cl)c(Cl)cc21

> <Similarity_SkelSpheres>
0.686

> <Cluster No>
36.0

> <QueryID>
MAT-POS-199e2e7c-1

> <SimilarityPheSA>
0.693

> <Postera series>
3-aminopyridine-like

> <PDB_code>
Mpro-x12000

> <Approach>
DGM_focussed_RL

> <ID>
20210618_81

> <SimilarityPheSA_2>
0.866

> <OPTIBRIUM.logD>
3.42969

> <OPTIBRIUM.BBB category>
+

> <OPTIBRIUM.logP>
3.42969

> <OPTIBRIUM.P-gp category>
no

> <OPTIBRIUM.logS>
0.834914

> <OPTIBRIUM.HIA category>
+

> <OPTIBRIUM.PPB90 category>
high

> <OPTIBRIUM.2D6 affinity category>
high

> <OPTIBRIUM.hERG pIC50>
4.52147

> <OPTIBRIUM.2C9 pKi>
5.39432

> <OPTIBRIUM.BBB log([brain]:[blood])>
-0.0434448

> <OPTIBRIUM.logS @ pH7.4>
0.834914

$$$$
Compound 287_1_5
haSeeSAR  07122111353D 1   1.00000     0.00000     0
SeeSAR 11.0.2 hazemaj
 46 49  0  0  0  0            999 V2000
   13.9297    0.1183   24.0352 Cl  0  0  0  0  0  0  0  0  0  0  0  0
   12.2033    0.0994   23.6031 C   0  0  0  0  0  0  0  0  0  0  0  0
   11.8186   -0.4096   22.3691 C   0  0  0  0  0  0  0  0  0  0  0  0
   11.2292    0.5829   24.4695 C   0  0  0  0  0  0  0  0  0  0  0  0
   13.0269   -1.0447   21.2285 Cl  0  0  0  0  0  0  0  0  0  0  0  0
   10.4815   -0.4368   21.9923 C   0  0  0  0  0  0  0  0  0  0  0  0
    9.8866    0.5617   24.1139 C   0  0  0  0  0  0  0  0  0  0  0  0
    9.5336    0.0565   22.8815 C   0  0  0  0  0  0  0  0  0  0  0  0
    8.7341    0.9848   24.7733 N   0  0  0  0  0  0  0  0  0  0  0  0
    8.0278    0.1603   22.7489 C   0  0  1  0  0  0  0  0  0  0  0  0
    8.5702    1.1074   26.2286 C   0  0  0  0  0  0  0  0  0  0  0  0
    7.7159    1.2379   23.7637 C   0  0  0  0  0  0  0  0  0  0  0  0
    7.6095    0.5694   21.3460 C   0  0  0  0  0  0  0  0  0  0  0  0
    8.8592   -0.2243   26.9008 C   0  0  0  0  0  0  0  0  0  0  0  0
    7.1460    1.5136   26.5695 C   0  0  0  0  0  0  0  0  0  0  0  0
    8.2699    1.4022   20.7250 O   0  0  0  0  0  0  0  0  0  0  0  0
    6.5356    0.0303   20.7923 N   0  0  0  0  0  0  0  0  0  0  0  0
    7.6111   -0.6474   27.6551 C   0  0  0  0  0  0  0  0  0  0  0  0
    6.5484    0.4180   27.4363 C   0  0  0  0  0  0  0  0  0  0  0  0
    6.0789    0.4949   19.5539 C   0  0  0  0  0  0  0  0  0  0  0  0
    5.8223   -1.0568   21.4780 C   0  0  0  0  0  0  0  0  0  0  0  0
    6.5572   -0.0508   18.3679 C   0  0  0  0  0  0  0  0  0  0  0  0
    5.1385    1.5140   19.4523 C   0  0  0  0  0  0  0  0  0  0  0  0
    6.1241    0.3914   17.1788 N   0  0  0  0  0  0  0  0  0  0  0  0
    4.7313    1.9268   18.2431 N   0  0  0  0  0  0  0  0  0  0  0  0
    5.2148    1.3760   17.1199 C   0  0  0  0  0  0  0  0  0  0  0  0
   11.4986    0.9504   25.3596 H   0  0  0  0  0  0  0  0  0  0  0  0
   10.2076   -0.8025   21.1029 H   0  0  0  0  0  0  0  0  0  0  0  0
    7.5924   -0.7020   23.0077 H   0  0  0  0  0  0  0  0  0  0  0  0
    9.2039    1.7984   26.5763 H   0  0  0  0  0  0  0  0  0  0  0  0
    7.8119    2.1515   23.3684 H   0  0  0  0  0  0  0  0  0  0  0  0
    6.7949    1.1320   24.1385 H   0  0  0  0  0  0  0  0  0  0  0  0
    9.6235   -0.1244   27.5379 H   0  0  0  0  0  0  0  0  0  0  0  0
    9.0880   -0.9107   26.2105 H   0  0  0  0  0  0  0  0  0  0  0  0
    6.6106    1.6146   25.7309 H   0  0  0  0  0  0  0  0  0  0  0  0
    7.1491    2.3797   27.0693 H   0  0  0  0  0  0  0  0  0  0  0  0
    7.8150   -0.7285   28.6308 H   0  0  0  0  0  0  0  0  0  0  0  0
    7.2865   -1.5273   27.3082 H   0  0  0  0  0  0  0  0  0  0  0  0
    5.7564    0.0166   26.9762 H   0  0  0  0  0  0  0  0  0  0  0  0
    6.2650    0.7992   28.3162 H   0  0  0  0  0  0  0  0  0  0  0  0
    5.0410   -1.3443   20.9240 H   0  0  0  0  0  0  0  0  0  0  0  0
    6.4413   -1.8313   21.6089 H   0  0  0  0  0  0  0  0  0  0  0  0
    5.4992   -0.7343   22.3678 H   0  0  0  0  0  0  0  0  0  0  0  0
    7.2352   -0.7851   18.4025 H   0  0  0  0  0  0  0  0  0  0  0  0
    4.7670    1.9377   20.2783 H   0  0  0  0  0  0  0  0  0  0  0  0
    4.8946    1.7022   16.2305 H   0  0  0  0  0  0  0  0  0  0  0  0
  1  2  1  0  0  0  0
  2  3  2  0  0  0  0
  2  4  1  0  0  0  0
  3  5  1  0  0  0  0
  3  6  1  0  0  0  0
  4  7  2  0  0  0  0
  6  8  2  0  0  0  0
  7  9  1  0  0  0  0
  8 10  1  0  0  0  0
  9 11  1  0  0  0  0
  9 12  1  0  0  0  0
 10 13  1  0  0  0  0
 11 14  1  0  0  0  0
 11 15  1  0  0  0  0
 13 16  2  0  0  0  0
 13 17  1  0  0  0  0
 14 18  1  0  0  0  0
 15 19  1  0  0  0  0
 17 20  1  0  0  0  0
 17 21  1  0  0  0  0
 20 22  2  0  0  0  0
 20 23  1  0  0  0  0
 22 24  1  0  0  0  0
 23 25  2  0  0  0  0
 24 26  2  0  0  0  0
  7  8  1  0  0  0  0
 10 12  1  0  0  0  0
 18 19  1  0  0  0  0
 25 26  1  0  0  0  0
  4 27  1  0  0  0  0
  6 28  1  0  0  0  0
 10 29  1  0  0  0  0
 11 30  1  0  0  0  0
 12 31  1  0  0  0  0
 12 32  1  0  0  0  0
 14 33  1  0  0  0  0
 14 34  1  0  0  0  0
 15 35  1  0  0  0  0
 15 36  1  0  0  0  0
 18 37  1  0  0  0  0
 18 38  1  0  0  0  0
 19 39  1  0  0  0  0
 19 40  1  0  0  0  0
 21 41  1  0  0  0  0
 21 42  1  0  0  0  0
 21 43  1  0  0  0  0
 22 44  1  0  0  0  0
 23 45  1  0  0  0  0
 26 46  1  0  0  0  0
M  END
> <BIOSOLVEIT.HYDE_ESTIMATED_AFFINITY_LOWER_BOUNDARY [nM]>
232.925886

> <BIOSOLVEIT.HYDE_ESTIMATED_AFFINITY_UPPER_BOUNDARY [nM]>
23142.563921

> <BIOSOLVEIT.HYDE_LIGAND_EFFICIENCY range: ++, +, 0, -, -->
-

> <BIOSOLVEIT.HYDE_LIGAND_LIPOPHILIC_EFFICIENCY range: ++, +, 0, -, -->
--

> <BIOSOLVEIT.INTER_CLASH range: red, yellow, green>
red

> <BIOSOLVEIT.INTRA_CLASH range: red, yellow, green>
green

> <BIOSOLVEIT.LOGP>
4.2926

> <BIOSOLVEIT.MOLECULAR WEIGHT>
391.3

> <BIOSOLVEIT.MOLECULE_CHECKSUM>
LTMyLjE2OzEuMjM2OTI=

> <BIOSOLVEIT.TORSION_QUALITY range: red, yellow, green, not rotatable>
green

> <BIOSOLVEIT.TPSA>
49.33

> <BIOSOLVEIT.SEESAR_FAVORITE>
favorite

> <smc_score>
0.75

> <QED_score>
0.783

> <distance>
0.708

> <SimilarityPheSA_1>
0.678

> <Smiles>
CN(C(=O)C1CN(C2CCCC2)c2cc(Cl)c(Cl)cc21)c1cncnc1

> <Similarity_SkelSpheres>
0.635

> <Cluster No>
142.0

> <QueryID>
JAG-UCB-a3ef7265-20

> <SimilarityPheSA>
0.6784

> <Postera series>
3-aminopyridine-like

> <PDB_code>
Mpro-x10324

> <Approach>
DGM_focussed_RL

> <ID>
20210618_286

> <SimilarityPheSA_2>
0.698

> <OPTIBRIUM.logD>
2.42972

> <OPTIBRIUM.BBB category>
-

> <OPTIBRIUM.logP>
3.99753

> <OPTIBRIUM.P-gp category>
yes

> <OPTIBRIUM.logS>
1.01777

> <OPTIBRIUM.HIA category>
+

> <OPTIBRIUM.PPB90 category>
high

> <OPTIBRIUM.2D6 affinity category>
medium

> <OPTIBRIUM.hERG pIC50>
5.74242

> <OPTIBRIUM.2C9 pKi>
5.1131

> <OPTIBRIUM.BBB log([brain]:[blood])>
0.0668956

> <OPTIBRIUM.logS @ pH7.4>
0.895809

$$$$
Compound 760_1_05
haSeeSAR  07122111353D 1   1.00000     0.00000     0
SeeSAR 11.0.2 hazemaj
 48 50  0  0  0  0            999 V2000
   13.5841    1.0908   23.0484 Cl  0  0  0  0  0  0  0  0  0  0  0  0
   12.0628    0.2257   22.7249 C   0  0  0  0  0  0  0  0  0  0  0  0
   12.1001   -1.0600   22.1955 C   0  0  0  0  0  0  0  0  0  0  0  0
   10.8453    0.8377   23.0027 C   0  0  0  0  0  0  0  0  0  0  0  0
   13.6649   -1.8329   21.8450 Cl  0  0  0  0  0  0  0  0  0  0  0  0
   10.9228   -1.7534   21.9342 C   0  0  0  0  0  0  0  0  0  0  0  0
    9.6707    0.1410   22.7405 C   0  0  0  0  0  0  0  0  0  0  0  0
    9.7025   -1.1446   22.2103 C   0  0  0  0  0  0  0  0  0  0  0  0
    8.3375    0.8062   23.0421 C   0  0  0  0  0  0  0  0  0  0  0  0
    7.7016    1.2782   21.7447 C   0  0  0  0  0  0  0  0  0  0  0  0
    8.3514    1.9625   20.9541 O   0  0  0  0  0  0  0  0  0  0  0  0
    6.3766    0.9345   21.4486 N   0  0  0  0  0  0  0  0  0  0  0  0
    5.3529    1.9002   21.0336 C   0  0  1  0  0  0  0  0  0  0  0  0
    5.8510   -0.4339   21.5130 C   0  0  0  0  0  0  0  0  0  0  0  0
    4.4162    1.1229   20.1390 C   0  0  0  0  0  0  0  0  0  0  0  0
    4.5682    2.3846   22.2421 C   0  0  0  0  0  0  0  0  0  0  0  0
    5.8151   -0.8803   20.0649 C   0  0  0  0  0  0  0  0  0  0  0  0
    5.3010    0.2752   19.3321 N   0  0  0  0  0  0  0  0  0  0  0  0
    4.5665    3.8604   22.2685 N   0  0  0  0  0  0  0  0  0  0  0  0
    5.6368    0.5493   18.0008 C   0  0  0  0  0  0  0  0  0  0  0  0
    5.6832    4.6819   22.3192 C   0  0  0  0  0  0  0  0  0  0  0  0
    3.3942    4.7345   22.3148 C   0  0  0  0  0  0  0  0  0  0  0  0
    6.1846   -0.3131   17.3141 O   0  0  0  0  0  0  0  0  0  0  0  0
    5.3250    1.9117   17.4034 C   0  0  0  0  0  0  0  0  0  0  0  0
    6.8323    4.2925   22.4199 O   0  0  0  0  0  0  0  0  0  0  0  0
    5.3385    5.9896   22.2301 O   0  0  0  0  0  0  0  0  0  0  0  0
    3.9615    6.0768   21.9017 C   0  0  0  0  0  0  0  0  0  0  0  0
   10.8151    1.7617   23.3838 H   0  0  0  0  0  0  0  0  0  0  0  0
   10.9531   -2.6773   21.5528 H   0  0  0  0  0  0  0  0  0  0  0  0
    8.8482   -1.6314   22.0277 H   0  0  0  0  0  0  0  0  0  0  0  0
    8.4850    1.5899   23.6455 H   0  0  0  0  0  0  0  0  0  0  0  0
    7.7312    0.1495   23.4908 H   0  0  0  0  0  0  0  0  0  0  0  0
    5.7633    2.6680   20.5418 H   0  0  0  0  0  0  0  0  0  0  0  0
    4.9338   -0.4442   21.9112 H   0  0  0  0  0  0  0  0  0  0  0  0
    6.4548   -1.0217   22.0515 H   0  0  0  0  0  0  0  0  0  0  0  0
    3.8899    1.7414   19.5554 H   0  0  0  0  0  0  0  0  0  0  0  0
    3.7900    0.5642   20.6828 H   0  0  0  0  0  0  0  0  0  0  0  0
    4.9940    2.0367   23.0774 H   0  0  0  0  0  0  0  0  0  0  0  0
    3.6272    2.0513   22.1839 H   0  0  0  0  0  0  0  0  0  0  0  0
    5.2079   -1.6671   19.9535 H   0  0  0  0  0  0  0  0  0  0  0  0
    6.7326   -1.1197   19.7469 H   0  0  0  0  0  0  0  0  0  0  0  0
    3.0102    4.7739   23.2372 H   0  0  0  0  0  0  0  0  0  0  0  0
    2.6905    4.4280   21.6737 H   0  0  0  0  0  0  0  0  0  0  0  0
    5.6295    1.9358   16.4512 H   0  0  0  0  0  0  0  0  0  0  0  0
    4.3392    2.0751   17.4424 H   0  0  0  0  0  0  0  0  0  0  0  0
    5.8013    2.6207   17.9236 H   0  0  0  0  0  0  0  0  0  0  0  0
    3.5224    6.8184   22.4088 H   0  0  0  0  0  0  0  0  0  0  0  0
    3.8399    6.2262   20.9204 H   0  0  0  0  0  0  0  0  0  0  0  0
  1  2  1  0  0  0  0
  2  3  2  0  0  0  0
  2  4  1  0  0  0  0
  3  5  1  0  0  0  0
  3  6  1  0  0  0  0
  4  7  2  0  0  0  0
  6  8  2  0  0  0  0
  7  9  1  0  0  0  0
  9 10  1  0  0  0  0
 10 11  2  0  0  0  0
 10 12  1  0  0  0  0
 12 13  1  0  0  0  0
 12 14  1  0  0  0  0
 13 15  1  0  0  0  0
 13 16  1  0  0  0  0
 14 17  1  0  0  0  0
 15 18  1  0  0  0  0
 16 19  1  0  0  0  0
 18 20  1  0  0  0  0
 19 21  1  0  0  0  0
 19 22  1  0  0  0  0
 20 23  2  0  0  0  0
 20 24  1  0  0  0  0
 21 25  2  0  0  0  0
 21 26  1  0  0  0  0
 22 27  1  0  0  0  0
  7  8  1  0  0  0  0
 17 18  1  0  0  0  0
 26 27  1  0  0  0  0
  4 28  1  0  0  0  0
  6 29  1  0  0  0  0
  8 30  1  0  0  0  0
  9 31  1  0  0  0  0
  9 32  1  0  0  0  0
 13 33  1  0  0  0  0
 14 34  1  0  0  0  0
 14 35  1  0  0  0  0
 15 36  1  0  0  0  0
 15 37  1  0  0  0  0
 16 38  1  0  0  0  0
 16 39  1  0  0  0  0
 17 40  1  0  0  0  0
 17 41  1  0  0  0  0
 22 42  1  0  0  0  0
 22 43  1  0  0  0  0
 24 44  1  0  0  0  0
 24 45  1  0  0  0  0
 24 46  1  0  0  0  0
 27 47  1  0  0  0  0
 27 48  1  0  0  0  0
M  END
> <BIOSOLVEIT.HYDE_ESTIMATED_AFFINITY_LOWER_BOUNDARY [nM]>
243.924134

> <BIOSOLVEIT.HYDE_ESTIMATED_AFFINITY_UPPER_BOUNDARY [nM]>
24235.304925

> <BIOSOLVEIT.HYDE_LIGAND_EFFICIENCY range: ++, +, 0, -, -->
-

> <BIOSOLVEIT.HYDE_LIGAND_LIPOPHILIC_EFFICIENCY range: ++, +, 0, -, -->
0

> <BIOSOLVEIT.INTER_CLASH range: red, yellow, green>
green

> <BIOSOLVEIT.INTRA_CLASH range: red, yellow, green>
green

> <BIOSOLVEIT.LOGP>
2.0474

> <BIOSOLVEIT.MOLECULAR WEIGHT>
414.287

> <BIOSOLVEIT.MOLECULE_CHECKSUM>
LTMyLjA0NTY7MS4xODY4Nw==

> <BIOSOLVEIT.TORSION_QUALITY range: red, yellow, green, not rotatable>
red

> <BIOSOLVEIT.TPSA>
70.16

> <BIOSOLVEIT.SEESAR_FAVORITE>
favorite

> <smc_score>
0.563

> <QED_score>
0.756

> <distance>
0.732

> <SimilarityPheSA_1>
0.63

> <Smiles>
CC(=O)N1CCN(C(=O)Cc2ccc(Cl)c(Cl)c2)C(CN2CCOC2=O)C1

> <Similarity_SkelSpheres>
0.618

> <Cluster No>
12.0

> <QueryID>
MAT-POS-bb423b95-1

> <SimilarityPheSA>
0.6302

> <Postera series>
3-aminopyridine-like

> <PDB_code>
Mpro-x11542

> <Approach>
DGM_exploratory_RL

> <ID>
20210628_30

> <SimilarityPheSA_2>
0.613

> <OPTIBRIUM.logD>
1.39605

> <OPTIBRIUM.BBB category>
-

> <OPTIBRIUM.logP>
1.39605

> <OPTIBRIUM.P-gp category>
yes

> <OPTIBRIUM.logS>
3.56248

> <OPTIBRIUM.HIA category>
+

> <OPTIBRIUM.PPB90 category>
low

> <OPTIBRIUM.2D6 affinity category>
medium

> <OPTIBRIUM.hERG pIC50>
4.67136

> <OPTIBRIUM.2C9 pKi>
4.76795

> <OPTIBRIUM.BBB log([brain]:[blood])>
-0.889797

> <OPTIBRIUM.logS @ pH7.4>
3.56248

$$$$
Compound 118_1_08
haSeeSAR  07122111353D 1   1.00000     0.00000     0
SeeSAR 11.0.2 hazemaj
 46 49  0  0  0  0            999 V2000
    9.1663    0.9386   29.2493 Cl  0  0  0  0  0  0  0  0  0  0  0  0
    8.8217    0.8740   27.5038 C   0  0  0  0  0  0  0  0  0  0  0  0
    7.7598    1.6013   26.9771 C   0  0  0  0  0  0  0  0  0  0  0  0
    9.6230    0.0942   26.6778 C   0  0  0  0  0  0  0  0  0  0  0  0
    6.7484    2.5914   28.0563 Cl  0  0  0  0  0  0  0  0  0  0  0  0
    7.4827    1.5594   25.6142 C   0  0  0  0  0  0  0  0  0  0  0  0
    9.3413    0.0556   25.3168 C   0  0  0  0  0  0  0  0  0  0  0  0
    8.2805    0.7799   24.7834 C   0  0  0  0  0  0  0  0  0  0  0  0
   10.2069   -0.7911   24.3989 C   0  0  1  0  0  0  0  0  0  0  0  0
    9.4648   -2.0844   24.1096 C   0  0  1  0  0  0  0  0  0  0  0  0
   10.4097   -0.1054   23.0640 C   0  0  0  0  0  0  0  0  0  0  0  0
    9.1978   -2.0684   22.6210 C   0  0  0  0  0  0  0  0  0  0  0  0
   10.2964   -3.2990   24.4898 C   0  0  0  0  0  0  0  0  0  0  0  0
    9.3499   -0.6662   22.2316 N   0  0  0  0  0  0  0  0  0  0  0  0
    8.6251    0.0048   21.2411 C   0  0  0  0  0  0  0  0  0  0  0  0
    9.0322    1.0437   20.7996 O   0  0  0  0  0  0  0  0  0  0  0  0
    7.4505   -0.5242   20.7749 N   0  0  0  0  0  0  0  0  0  0  0  0
    6.7244    0.1480   19.7826 C   0  0  0  0  0  0  0  0  0  0  0  0
    5.5592    0.8610   20.0575 C   0  0  0  0  0  0  0  0  0  0  0  0
    7.1918    0.0973   18.4736 C   0  0  0  0  0  0  0  0  0  0  0  0
    4.8967    1.5010   19.0144 C   0  0  0  0  0  0  0  0  0  0  0  0
    5.0336    0.9544   21.3435 C   0  0  0  0  0  0  0  0  0  0  0  0
    6.5315    0.7239   17.4879 N   0  0  0  0  0  0  0  0  0  0  0  0
    5.4072    1.4180   17.7222 C   0  0  0  0  0  0  0  0  0  0  0  0
    3.7310    2.2199   19.2603 C   0  0  0  0  0  0  0  0  0  0  0  0
    3.8699    1.6676   21.6091 C   0  0  0  0  0  0  0  0  0  0  0  0
    3.2238    2.3003   20.5526 C   0  0  0  0  0  0  0  0  0  0  0  0
   10.3872   -0.4289   27.0551 H   0  0  0  0  0  0  0  0  0  0  0  0
    6.7192    2.0833   25.2366 H   0  0  0  0  0  0  0  0  0  0  0  0
    8.0915    0.7401   23.8023 H   0  0  0  0  0  0  0  0  0  0  0  0
   11.0885   -0.9835   24.8300 H   0  0  0  0  0  0  0  0  0  0  0  0
    8.5986   -2.0969   24.6091 H   0  0  0  0  0  0  0  0  0  0  0  0
   11.3111   -0.3169   22.6863 H   0  0  0  0  0  0  0  0  0  0  0  0
   10.3092    0.8857   23.1518 H   0  0  0  0  0  0  0  0  0  0  0  0
    8.2715   -2.3903   22.4254 H   0  0  0  0  0  0  0  0  0  0  0  0
    9.8591   -2.6423   22.1380 H   0  0  0  0  0  0  0  0  0  0  0  0
    9.7815   -4.1321   24.2878 H   0  0  0  0  0  0  0  0  0  0  0  0
   11.1477   -3.2977   23.9650 H   0  0  0  0  0  0  0  0  0  0  0  0
   10.5071   -3.2662   25.4668 H   0  0  0  0  0  0  0  0  0  0  0  0
    7.1113   -1.3900   21.1427 H   0  0  0  0  0  0  0  0  0  0  0  0
    8.0276   -0.4108   18.2653 H   0  0  0  0  0  0  0  0  0  0  0  0
    5.5059    0.4962   22.0964 H   0  0  0  0  0  0  0  0  0  0  0  0
    4.9360    1.8758   16.9683 H   0  0  0  0  0  0  0  0  0  0  0  0
    3.2581    2.6785   18.5080 H   0  0  0  0  0  0  0  0  0  0  0  0
    3.5058    1.7243   22.5387 H   0  0  0  0  0  0  0  0  0  0  0  0
    2.3859    2.8184   20.7240 H   0  0  0  0  0  0  0  0  0  0  0  0
  1  2  1  0  0  0  0
  2  3  2  0  0  0  0
  2  4  1  0  0  0  0
  3  5  1  0  0  0  0
  3  6  1  0  0  0  0
  4  7  2  0  0  0  0
  6  8  2  0  0  0  0
  7  9  1  0  0  0  0
  9 10  1  0  0  0  0
  9 11  1  0  0  0  0
 10 12  1  0  0  0  0
 10 13  1  0  0  0  0
 11 14  1  0  0  0  0
 14 15  1  0  0  0  0
 15 16  2  0  0  0  0
 15 17  1  0  0  0  0
 17 18  1  0  0  0  0
 18 19  1  0  0  0  0
 18 20  2  0  0  0  0
 19 21  1  0  0  0  0
 19 22  2  0  0  0  0
 20 23  1  0  0  0  0
 21 24  1  0  0  0  0
 21 25  2  0  0  0  0
 22 26  1  0  0  0  0
 25 27  1  0  0  0  0
  7  8  1  0  0  0  0
 12 14  1  0  0  0  0
 23 24  2  0  0  0  0
 26 27  2  0  0  0  0
  4 28  1  0  0  0  0
  6 29  1  0  0  0  0
  8 30  1  0  0  0  0
  9 31  1  0  0  0  0
 10 32  1  0  0  0  0
 11 33  1  0  0  0  0
 11 34  1  0  0  0  0
 12 35  1  0  0  0  0
 12 36  1  0  0  0  0
 13 37  1  0  0  0  0
 13 38  1  0  0  0  0
 13 39  1  0  0  0  0
 17 40  1  0  0  0  0
 20 41  1  0  0  0  0
 22 42  1  0  0  0  0
 24 43  1  0  0  0  0
 25 44  1  0  0  0  0
 26 45  1  0  0  0  0
 27 46  1  0  0  0  0
M  END
> <BIOSOLVEIT.HYDE_ESTIMATED_AFFINITY_LOWER_BOUNDARY [nM]>
261.398865

> <BIOSOLVEIT.HYDE_ESTIMATED_AFFINITY_UPPER_BOUNDARY [nM]>
25971.522762

> <BIOSOLVEIT.HYDE_LIGAND_EFFICIENCY range: ++, +, 0, -, -->
-

> <BIOSOLVEIT.HYDE_LIGAND_LIPOPHILIC_EFFICIENCY range: ++, +, 0, -, -->
--

> <BIOSOLVEIT.INTER_CLASH range: red, yellow, green>
green

> <BIOSOLVEIT.INTRA_CLASH range: red, yellow, green>
green

> <BIOSOLVEIT.LOGP>
5.809

> <BIOSOLVEIT.MOLECULAR WEIGHT>
400.307

> <BIOSOLVEIT.MOLECULE_CHECKSUM>
LTMxLjg3NDE7MS4xODA1Mg==

> <BIOSOLVEIT.TORSION_QUALITY range: red, yellow, green, not rotatable>
green

> <BIOSOLVEIT.TPSA>
45.23

> <BIOSOLVEIT.SEESAR_FAVORITE>
favorite

> <smc_score>
0.563

> <QED_score>
0.59

> <distance>
0.508

> <SimilarityPheSA_1>
0.655

> <Smiles>
CC1CN(C(=O)Nc2cncc3ccccc23)CC1c1ccc(Cl)c(Cl)c1

> <Similarity_SkelSpheres>
0.876

> <Cluster No>
54.0

> <QueryID>
ALP-POS-6d04362c-1

> <SimilarityPheSA>
0.6553

> <Postera series>
3-aminopyridine-like

> <PDB_code>
Mpro-x12419

> <Approach>
DGM_focussed_RL

> <ID>
20210618_117

> <SimilarityPheSA_2>
0.823

> <OPTIBRIUM.logD>
5.26895

> <OPTIBRIUM.BBB category>
+

> <OPTIBRIUM.logP>
5.26895

> <OPTIBRIUM.P-gp category>
no

> <OPTIBRIUM.logS>
-0.826632

> <OPTIBRIUM.HIA category>
+

> <OPTIBRIUM.PPB90 category>
high

> <OPTIBRIUM.2D6 affinity category>
high

> <OPTIBRIUM.hERG pIC50>
5.6988

> <OPTIBRIUM.2C9 pKi>
5.92936

> <OPTIBRIUM.BBB log([brain]:[blood])>
-0.069391

> <OPTIBRIUM.logS @ pH7.4>
-0.826632

$$$$
Compound 611_1_02
haSeeSAR  07122111353D 1   1.00000     0.00000     0
SeeSAR 11.0.2 hazemaj
 42 45  0  0  0  0            999 V2000
   11.8626    3.2304   22.8703 Cl  0  0  0  0  0  0  0  0  0  0  0  0
   11.6154    1.4720   22.7499 C   0  0  0  0  0  0  0  0  0  0  0  0
   12.7007    0.6085   22.8508 C   0  0  0  0  0  0  0  0  0  0  0  0
   10.3316    0.9740   22.5553 C   0  0  0  0  0  0  0  0  0  0  0  0
   13.9203    1.1049   23.0378 F   0  0  0  0  0  0  0  0  0  0  0  0
   12.5223   -0.7675   22.7587 C   0  0  0  0  0  0  0  0  0  0  0  0
   10.1515   -0.4016   22.4632 C   0  0  0  0  0  0  0  0  0  0  0  0
   11.2377   -1.2633   22.5638 C   0  0  0  0  0  0  0  0  0  0  0  0
    8.7558   -0.9630   22.2507 C   0  0  0  0  0  0  0  0  0  0  0  0
   11.0545   -2.5765   22.4738 F   0  0  0  0  0  0  0  0  0  0  0  0
    8.0799   -0.2219   21.1086 C   0  0  0  0  0  0  0  0  0  0  0  0
    8.6731    0.6875   20.5286 O   0  0  0  0  0  0  0  0  0  0  0  0
    6.8541   -0.5543   20.7380 N   0  0  0  0  0  0  0  0  0  0  0  0
    6.2316    0.1284   19.6861 C   0  0  0  0  0  0  0  0  0  0  0  0
    5.1392    0.9606   19.9059 C   0  0  0  0  0  0  0  0  0  0  0  0
    6.6995   -0.0157   18.3846 C   0  0  0  0  0  0  0  0  0  0  0  0
    4.5519    1.6160   18.8545 C   0  0  0  0  0  0  0  0  0  0  0  0
    4.4122    1.3306   21.0599 C   0  0  0  0  0  0  0  0  0  0  0  0
    6.1096    0.6320   17.3691 N   0  0  0  0  0  0  0  0  0  0  0  0
    3.5168    2.3397   19.3657 N   0  0  0  0  0  0  0  0  0  0  0  0
    5.0558    1.4371   17.5700 C   0  0  0  0  0  0  0  0  0  0  0  0
    3.4671    2.1492   20.6625 N   0  0  0  0  0  0  0  0  0  0  0  0
    2.5999    3.1958   18.5979 C   0  0  0  0  0  0  0  0  0  0  0  0
    1.4290    3.6068   19.4817 C   0  0  1  0  0  0  0  0  0  0  0  0
    1.6774    4.5294   20.5312 O   0  0  0  0  0  0  0  0  0  0  0  0
    0.6118    4.7061   18.8481 C   0  0  0  0  0  0  0  0  0  0  0  0
    1.4941    5.6248   19.6595 C   0  0  0  0  0  0  0  0  0  0  0  0
    9.5509    1.5949   22.4831 H   0  0  0  0  0  0  0  0  0  0  0  0
   13.3027   -1.3886   22.8310 H   0  0  0  0  0  0  0  0  0  0  0  0
    8.2193   -0.8478   23.0867 H   0  0  0  0  0  0  0  0  0  0  0  0
    8.8183   -1.9355   22.0262 H   0  0  0  0  0  0  0  0  0  0  0  0
    6.3723   -1.2930   21.2092 H   0  0  0  0  0  0  0  0  0  0  0  0
    7.4843   -0.6085   18.2040 H   0  0  0  0  0  0  0  0  0  0  0  0
    4.5845    1.0273   21.9971 H   0  0  0  0  0  0  0  0  0  0  0  0
    4.6322    1.9087   16.7966 H   0  0  0  0  0  0  0  0  0  0  0  0
    2.2581    2.6913   17.8050 H   0  0  0  0  0  0  0  0  0  0  0  0
    3.0869    4.0126   18.2887 H   0  0  0  0  0  0  0  0  0  0  0  0
    0.8720    2.8291   19.7732 H   0  0  0  0  0  0  0  0  0  0  0  0
   -0.3572    4.7154   19.0947 H   0  0  0  0  0  0  0  0  0  0  0  0
    0.7042    4.7903   17.8560 H   0  0  0  0  0  0  0  0  0  0  0  0
    2.3222    5.9345   19.1923 H   0  0  0  0  0  0  0  0  0  0  0  0
    1.0255    6.4105   20.0632 H   0  0  0  0  0  0  0  0  0  0  0  0
  1  2  1  0  0  0  0
  2  3  2  0  0  0  0
  2  4  1  0  0  0  0
  3  5  1  0  0  0  0
  3  6  1  0  0  0  0
  4  7  2  0  0  0  0
  6  8  2  0  0  0  0
  7  9  1  0  0  0  0
  8 10  1  0  0  0  0
  9 11  1  0  0  0  0
 11 12  2  0  0  0  0
 11 13  1  0  0  0  0
 13 14  1  0  0  0  0
 14 15  2  0  0  0  0
 14 16  1  0  0  0  0
 15 17  1  0  0  0  0
 15 18  1  0  0  0  0
 16 19  2  0  0  0  0
 17 20  1  0  0  0  0
 17 21  2  0  0  0  0
 18 22  2  0  0  0  0
 20 23  1  0  0  0  0
 23 24  1  0  0  0  0
 24 25  1  0  0  0  0
 24 26  1  0  0  0  0
 25 27  1  0  0  0  0
  7  8  1  0  0  0  0
 19 21  1  0  0  0  0
 20 22  1  0  0  0  0
 26 27  1  0  0  0  0
  4 28  1  0  0  0  0
  6 29  1  0  0  0  0
  9 30  1  0  0  0  0
  9 31  1  0  0  0  0
 13 32  1  0  0  0  0
 16 33  1  0  0  0  0
 18 34  1  0  0  0  0
 21 35  1  0  0  0  0
 23 36  1  0  0  0  0
 23 37  1  0  0  0  0
 24 38  1  0  0  0  0
 26 39  1  0  0  0  0
 26 40  1  0  0  0  0
 27 41  1  0  0  0  0
 27 42  1  0  0  0  0
M  END
> <BIOSOLVEIT.HYDE_ESTIMATED_AFFINITY_LOWER_BOUNDARY [nM]>
334.485625

> <BIOSOLVEIT.HYDE_ESTIMATED_AFFINITY_UPPER_BOUNDARY [nM]>
33233.124446

> <BIOSOLVEIT.HYDE_LIGAND_EFFICIENCY range: ++, +, 0, -, -->
-

> <BIOSOLVEIT.HYDE_LIGAND_LIPOPHILIC_EFFICIENCY range: ++, +, 0, -, -->
-

> <BIOSOLVEIT.INTER_CLASH range: red, yellow, green>
yellow

> <BIOSOLVEIT.INTRA_CLASH range: red, yellow, green>
red

> <BIOSOLVEIT.LOGP>
3.333

> <BIOSOLVEIT.MOLECULAR WEIGHT>
392.792

> <BIOSOLVEIT.MOLECULE_CHECKSUM>
LTMxLjI2Mjk7MS4xNTc4OQ==

> <BIOSOLVEIT.TORSION_QUALITY range: red, yellow, green, not rotatable>
red

> <BIOSOLVEIT.TPSA>
69.04

> <BIOSOLVEIT.SEESAR_FAVORITE>
favorite

> <smc_score>
0.688

> <QED_score>
0.676

> <distance>
0.58

> <SimilarityPheSA_1>
0.645

> <Smiles>
O=C(Cc1cc(Cl)c(F)cc1F)Nc1cncc2c1cnn2CC1CCO1

> <Similarity_SkelSpheres>
0.631

> <Cluster No>
335.0

> <QueryID>
MAT-POS-f7918075-5

> <SimilarityPheSA>
0.6453

> <Postera series>
3-aminopyridine-like

> <PDB_code>
Mpro-x11499

> <Approach>
DGM_focussed_RL

> <ID>
20210618_610

> <SimilarityPheSA_2>
0.858

> <OPTIBRIUM.logD>
2.86301

> <OPTIBRIUM.BBB category>
-

> <OPTIBRIUM.logP>
2.86301

> <OPTIBRIUM.P-gp category>
no

> <OPTIBRIUM.logS>
0.404399

> <OPTIBRIUM.HIA category>
+

> <OPTIBRIUM.PPB90 category>
high

> <OPTIBRIUM.2D6 affinity category>
high

> <OPTIBRIUM.hERG pIC50>
5.66861

> <OPTIBRIUM.2C9 pKi>
5.39237

> <OPTIBRIUM.BBB log([brain]:[blood])>
-0.365511

> <OPTIBRIUM.logS @ pH7.4>
0.404399

$$$$
Compound 611_1_01
haSeeSAR  07122111353D 1   1.00000     0.00000     0
SeeSAR 11.0.2 hazemaj
 42 45  0  0  0  0            999 V2000
   11.8424    3.2431   22.8611 Cl  0  0  0  0  0  0  0  0  0  0  0  0
   11.6051    1.4833   22.7421 C   0  0  0  0  0  0  0  0  0  0  0  0
   12.6999    0.6323   22.8469 C   0  0  0  0  0  0  0  0  0  0  0  0
   10.3273    0.9726   22.5447 C   0  0  0  0  0  0  0  0  0  0  0  0
   13.9162    1.1340   23.0362 F   0  0  0  0  0  0  0  0  0  0  0  0
   12.5390   -0.7455   22.7551 C   0  0  0  0  0  0  0  0  0  0  0  0
   10.1654   -0.4057   22.4532 C   0  0  0  0  0  0  0  0  0  0  0  0
   11.2609   -1.2562   22.5574 C   0  0  0  0  0  0  0  0  0  0  0  0
    8.7727   -0.9755   22.2381 C   0  0  0  0  0  0  0  0  0  0  0  0
   11.0800   -2.5709   22.4661 F   0  0  0  0  0  0  0  0  0  0  0  0
    8.0922   -0.2341   21.0989 C   0  0  0  0  0  0  0  0  0  0  0  0
    8.6843    0.6731   20.5145 O   0  0  0  0  0  0  0  0  0  0  0  0
    6.8636   -0.5640   20.7355 N   0  0  0  0  0  0  0  0  0  0  0  0
    6.2369    0.1188   19.6861 C   0  0  0  0  0  0  0  0  0  0  0  0
    5.1490    0.9554   19.9112 C   0  0  0  0  0  0  0  0  0  0  0  0
    6.6961   -0.0295   18.3821 C   0  0  0  0  0  0  0  0  0  0  0  0
    4.5574    1.6109   18.8622 C   0  0  0  0  0  0  0  0  0  0  0  0
    4.4307    1.3303   21.0690 C   0  0  0  0  0  0  0  0  0  0  0  0
    6.1021    0.6183   17.3689 N   0  0  0  0  0  0  0  0  0  0  0  0
    3.5282    2.3392   19.3784 N   0  0  0  0  0  0  0  0  0  0  0  0
    5.0526    1.4275   17.5749 C   0  0  0  0  0  0  0  0  0  0  0  0
    3.4861    2.1516   20.6759 N   0  0  0  0  0  0  0  0  0  0  0  0
    2.6096    3.1972   18.6148 C   0  0  0  0  0  0  0  0  0  0  0  0
    1.3230    3.3949   19.4063 C   0  0  1  0  0  0  0  0  0  0  0  0
    1.4914    4.1741   20.5717 O   0  0  0  0  0  0  0  0  0  0  0  0
    0.4741    4.4846   18.8000 C   0  0  0  0  0  0  0  0  0  0  0  0
    0.7369    5.2601   20.0713 C   0  0  0  0  0  0  0  0  0  0  0  0
    9.5399    1.5844   22.4699 H   0  0  0  0  0  0  0  0  0  0  0  0
   13.3267   -1.3570   22.8300 H   0  0  0  0  0  0  0  0  0  0  0  0
    8.2353   -0.8669   23.0745 H   0  0  0  0  0  0  0  0  0  0  0  0
    8.8415   -1.9467   22.0099 H   0  0  0  0  0  0  0  0  0  0  0  0
    6.3826   -1.3010   21.2102 H   0  0  0  0  0  0  0  0  0  0  0  0
    7.4776   -0.6257   18.1976 H   0  0  0  0  0  0  0  0  0  0  0  0
    4.6078    1.0283   22.0057 H   0  0  0  0  0  0  0  0  0  0  0  0
    4.6259    1.8991   16.8033 H   0  0  0  0  0  0  0  0  0  0  0  0
    2.3987    2.7631   17.7389 H   0  0  0  0  0  0  0  0  0  0  0  0
    3.0404    4.0848   18.4518 H   0  0  0  0  0  0  0  0  0  0  0  0
    0.8215    2.5447   19.5668 H   0  0  0  0  0  0  0  0  0  0  0  0
   -0.4829    4.2376   18.6474 H   0  0  0  0  0  0  0  0  0  0  0  0
    0.8483    4.8975   17.9697 H   0  0  0  0  0  0  0  0  0  0  0  0
    1.2657    6.0983   19.9373 H   0  0  0  0  0  0  0  0  0  0  0  0
   -0.0851    5.4661   20.6022 H   0  0  0  0  0  0  0  0  0  0  0  0
  1  2  1  0  0  0  0
  2  3  2  0  0  0  0
  2  4  1  0  0  0  0
  3  5  1  0  0  0  0
  3  6  1  0  0  0  0
  4  7  2  0  0  0  0
  6  8  2  0  0  0  0
  7  9  1  0  0  0  0
  8 10  1  0  0  0  0
  9 11  1  0  0  0  0
 11 12  2  0  0  0  0
 11 13  1  0  0  0  0
 13 14  1  0  0  0  0
 14 15  2  0  0  0  0
 14 16  1  0  0  0  0
 15 17  1  0  0  0  0
 15 18  1  0  0  0  0
 16 19  2  0  0  0  0
 17 20  1  0  0  0  0
 17 21  2  0  0  0  0
 18 22  2  0  0  0  0
 20 23  1  0  0  0  0
 23 24  1  0  0  0  0
 24 25  1  0  0  0  0
 24 26  1  0  0  0  0
 25 27  1  0  0  0  0
  7  8  1  0  0  0  0
 19 21  1  0  0  0  0
 20 22  1  0  0  0  0
 26 27  1  0  0  0  0
  4 28  1  0  0  0  0
  6 29  1  0  0  0  0
  9 30  1  0  0  0  0
  9 31  1  0  0  0  0
 13 32  1  0  0  0  0
 16 33  1  0  0  0  0
 18 34  1  0  0  0  0
 21 35  1  0  0  0  0
 23 36  1  0  0  0  0
 23 37  1  0  0  0  0
 24 38  1  0  0  0  0
 26 39  1  0  0  0  0
 26 40  1  0  0  0  0
 27 41  1  0  0  0  0
 27 42  1  0  0  0  0
M  END
> <BIOSOLVEIT.HYDE_ESTIMATED_AFFINITY_LOWER_BOUNDARY [nM]>
369.609244

> <BIOSOLVEIT.HYDE_ESTIMATED_AFFINITY_UPPER_BOUNDARY [nM]>
36722.863712

> <BIOSOLVEIT.HYDE_LIGAND_EFFICIENCY range: ++, +, 0, -, -->
-

> <BIOSOLVEIT.HYDE_LIGAND_LIPOPHILIC_EFFICIENCY range: ++, +, 0, -, -->
-

> <BIOSOLVEIT.INTER_CLASH range: red, yellow, green>
yellow

> <BIOSOLVEIT.INTRA_CLASH range: red, yellow, green>
red

> <BIOSOLVEIT.LOGP>
3.333

> <BIOSOLVEIT.MOLECULAR WEIGHT>
392.792

> <BIOSOLVEIT.MOLECULE_CHECKSUM>
LTMxLjAxNTQ7MS4xNDg3Mg==

> <BIOSOLVEIT.TORSION_QUALITY range: red, yellow, green, not rotatable>
red

> <BIOSOLVEIT.TPSA>
69.04

> <BIOSOLVEIT.SEESAR_FAVORITE>
favorite

> <smc_score>
0.688

> <QED_score>
0.676

> <distance>
0.58

> <SimilarityPheSA_1>
0.645

> <Smiles>
O=C(Cc1cc(Cl)c(F)cc1F)Nc1cncc2c1cnn2CC1CCO1

> <Similarity_SkelSpheres>
0.631

> <Cluster No>
335.0

> <QueryID>
MAT-POS-f7918075-5

> <SimilarityPheSA>
0.6453

> <Postera series>
3-aminopyridine-like

> <PDB_code>
Mpro-x11499

> <Approach>
DGM_focussed_RL

> <ID>
20210618_610

> <SimilarityPheSA_2>
0.858

> <OPTIBRIUM.logD>
2.86301

> <OPTIBRIUM.BBB category>
-

> <OPTIBRIUM.logP>
2.86301

> <OPTIBRIUM.P-gp category>
no

> <OPTIBRIUM.logS>
0.404399

> <OPTIBRIUM.HIA category>
+

> <OPTIBRIUM.PPB90 category>
high

> <OPTIBRIUM.2D6 affinity category>
high

> <OPTIBRIUM.hERG pIC50>
5.66861

> <OPTIBRIUM.2C9 pKi>
5.39237

> <OPTIBRIUM.BBB log([brain]:[blood])>
-0.365511

> <OPTIBRIUM.logS @ pH7.4>
0.404399

$$$$
Compound 611_1_05
haSeeSAR  07122111353D 1   1.00000     0.00000     0
SeeSAR 11.0.2 hazemaj
 42 45  0  0  0  0            999 V2000
   11.8680    3.2260   22.8730 Cl  0  0  0  0  0  0  0  0  0  0  0  0
   11.6151    1.4684   22.7526 C   0  0  0  0  0  0  0  0  0  0  0  0
   12.6977    0.6013   22.8526 C   0  0  0  0  0  0  0  0  0  0  0  0
   10.3294    0.9746   22.5594 C   0  0  0  0  0  0  0  0  0  0  0  0
   13.9190    1.0938   23.0383 F   0  0  0  0  0  0  0  0  0  0  0  0
   12.5147   -0.7740   22.7603 C   0  0  0  0  0  0  0  0  0  0  0  0
   10.1448   -0.4004   22.4671 C   0  0  0  0  0  0  0  0  0  0  0  0
   11.2283   -1.2656   22.5666 C   0  0  0  0  0  0  0  0  0  0  0  0
    8.7471   -0.9572   22.2560 C   0  0  0  0  0  0  0  0  0  0  0  0
   11.0407   -2.5782   22.4767 F   0  0  0  0  0  0  0  0  0  0  0  0
    8.0740   -0.2164   21.1121 C   0  0  0  0  0  0  0  0  0  0  0  0
    8.6686    0.6926   20.5329 O   0  0  0  0  0  0  0  0  0  0  0  0
    6.8489   -0.5485   20.7389 N   0  0  0  0  0  0  0  0  0  0  0  0
    6.2289    0.1339   19.6853 C   0  0  0  0  0  0  0  0  0  0  0  0
    5.1424    0.9743   19.9037 C   0  0  0  0  0  0  0  0  0  0  0  0
    6.6934   -0.0186   18.3837 C   0  0  0  0  0  0  0  0  0  0  0  0
    4.5575    1.6291   18.8507 C   0  0  0  0  0  0  0  0  0  0  0  0
    4.4200    1.3537   21.0575 C   0  0  0  0  0  0  0  0  0  0  0  0
    6.1059    0.6288   17.3664 N   0  0  0  0  0  0  0  0  0  0  0  0
    3.5281    2.3617   19.3608 N   0  0  0  0  0  0  0  0  0  0  0  0
    5.0578    1.4415   17.5660 C   0  0  0  0  0  0  0  0  0  0  0  0
    3.4796    2.1769   20.6583 N   0  0  0  0  0  0  0  0  0  0  0  0
    2.6154    3.2207   18.5911 C   0  0  0  0  0  0  0  0  0  0  0  0
    1.6773    3.9486   19.5456 C   0  0  1  0  0  0  0  0  0  0  0  0
    0.8153    4.8851   18.9156 O   0  0  0  0  0  0  0  0  0  0  0  0
    0.4369    3.1327   19.8066 C   0  0  0  0  0  0  0  0  0  0  0  0
   -0.2460    4.4760   19.7611 C   0  0  0  0  0  0  0  0  0  0  0  0
    9.5507    1.5980   22.4879 H   0  0  0  0  0  0  0  0  0  0  0  0
   13.2931   -1.3976   22.8319 H   0  0  0  0  0  0  0  0  0  0  0  0
    8.2109   -0.8380   23.0916 H   0  0  0  0  0  0  0  0  0  0  0  0
    8.8061   -1.9305   22.0338 H   0  0  0  0  0  0  0  0  0  0  0  0
    6.3658   -1.2869   21.2094 H   0  0  0  0  0  0  0  0  0  0  0  0
    7.4739   -0.6174   18.2039 H   0  0  0  0  0  0  0  0  0  0  0  0
    4.5921    1.0532   21.9956 H   0  0  0  0  0  0  0  0  0  0  0  0
    4.6359    1.9127   16.7914 H   0  0  0  0  0  0  0  0  0  0  0  0
    2.0797    2.6581   17.9616 H   0  0  0  0  0  0  0  0  0  0  0  0
    3.1464    3.8896   18.0709 H   0  0  0  0  0  0  0  0  0  0  0  0
    2.1217    4.2935   20.3724 H   0  0  0  0  0  0  0  0  0  0  0  0
    0.4072    2.6639   20.6894 H   0  0  0  0  0  0  0  0  0  0  0  0
    0.1805    2.4940   19.0812 H   0  0  0  0  0  0  0  0  0  0  0  0
   -1.1495    4.4748   19.3324 H   0  0  0  0  0  0  0  0  0  0  0  0
   -0.2939    4.9541   20.6382 H   0  0  0  0  0  0  0  0  0  0  0  0
  1  2  1  0  0  0  0
  2  3  2  0  0  0  0
  2  4  1  0  0  0  0
  3  5  1  0  0  0  0
  3  6  1  0  0  0  0
  4  7  2  0  0  0  0
  6  8  2  0  0  0  0
  7  9  1  0  0  0  0
  8 10  1  0  0  0  0
  9 11  1  0  0  0  0
 11 12  2  0  0  0  0
 11 13  1  0  0  0  0
 13 14  1  0  0  0  0
 14 15  2  0  0  0  0
 14 16  1  0  0  0  0
 15 17  1  0  0  0  0
 15 18  1  0  0  0  0
 16 19  2  0  0  0  0
 17 20  1  0  0  0  0
 17 21  2  0  0  0  0
 18 22  2  0  0  0  0
 20 23  1  0  0  0  0
 23 24  1  0  0  0  0
 24 25  1  0  0  0  0
 24 26  1  0  0  0  0
 25 27  1  0  0  0  0
  7  8  1  0  0  0  0
 19 21  1  0  0  0  0
 20 22  1  0  0  0  0
 26 27  1  0  0  0  0
  4 28  1  0  0  0  0
  6 29  1  0  0  0  0
  9 30  1  0  0  0  0
  9 31  1  0  0  0  0
 13 32  1  0  0  0  0
 16 33  1  0  0  0  0
 18 34  1  0  0  0  0
 21 35  1  0  0  0  0
 23 36  1  0  0  0  0
 23 37  1  0  0  0  0
 24 38  1  0  0  0  0
 26 39  1  0  0  0  0
 26 40  1  0  0  0  0
 27 41  1  0  0  0  0
 27 42  1  0  0  0  0
M  END
> <BIOSOLVEIT.HYDE_ESTIMATED_AFFINITY_LOWER_BOUNDARY [nM]>
371.835536

> <BIOSOLVEIT.HYDE_ESTIMATED_AFFINITY_UPPER_BOUNDARY [nM]>
36944.058966

> <BIOSOLVEIT.HYDE_LIGAND_EFFICIENCY range: ++, +, 0, -, -->
-

> <BIOSOLVEIT.HYDE_LIGAND_LIPOPHILIC_EFFICIENCY range: ++, +, 0, -, -->
-

> <BIOSOLVEIT.INTER_CLASH range: red, yellow, green>
yellow

> <BIOSOLVEIT.INTRA_CLASH range: red, yellow, green>
red

> <BIOSOLVEIT.LOGP>
3.333

> <BIOSOLVEIT.MOLECULAR WEIGHT>
392.792

> <BIOSOLVEIT.MOLECULE_CHECKSUM>
LTMxLjAwMDU7MS4xNDgxNw==

> <BIOSOLVEIT.TORSION_QUALITY range: red, yellow, green, not rotatable>
red

> <BIOSOLVEIT.TPSA>
69.04

> <BIOSOLVEIT.SEESAR_FAVORITE>
favorite

> <smc_score>
0.688

> <QED_score>
0.676

> <distance>
0.58

> <SimilarityPheSA_1>
0.645

> <Smiles>
O=C(Cc1cc(Cl)c(F)cc1F)Nc1cncc2c1cnn2CC1CCO1

> <Similarity_SkelSpheres>
0.631

> <Cluster No>
335.0

> <QueryID>
MAT-POS-f7918075-5

> <SimilarityPheSA>
0.6453

> <Postera series>
3-aminopyridine-like

> <PDB_code>
Mpro-x11499

> <Approach>
DGM_focussed_RL

> <ID>
20210618_610

> <SimilarityPheSA_2>
0.858

> <OPTIBRIUM.logD>
2.86301

> <OPTIBRIUM.BBB category>
-

> <OPTIBRIUM.logP>
2.86301

> <OPTIBRIUM.P-gp category>
no

> <OPTIBRIUM.logS>
0.404399

> <OPTIBRIUM.HIA category>
+

> <OPTIBRIUM.PPB90 category>
high

> <OPTIBRIUM.2D6 affinity category>
high

> <OPTIBRIUM.hERG pIC50>
5.66861

> <OPTIBRIUM.2C9 pKi>
5.39237

> <OPTIBRIUM.BBB log([brain]:[blood])>
-0.365511

> <OPTIBRIUM.logS @ pH7.4>
0.404399

$$$$
Compound 760_1_01
haSeeSAR  07122111353D 1   1.00000     0.00000     0
SeeSAR 11.0.2 hazemaj
 48 50  0  0  0  0            999 V2000
   13.5883    1.0894   23.0465 Cl  0  0  0  0  0  0  0  0  0  0  0  0
   12.0667    0.2242   22.7247 C   0  0  0  0  0  0  0  0  0  0  0  0
   12.1035   -1.0618   22.1959 C   0  0  0  0  0  0  0  0  0  0  0  0
   10.8494    0.8365   23.0033 C   0  0  0  0  0  0  0  0  0  0  0  0
   13.6679   -1.8350   21.8445 Cl  0  0  0  0  0  0  0  0  0  0  0  0
   10.9258   -1.7552   21.9360 C   0  0  0  0  0  0  0  0  0  0  0  0
    9.6746    0.1397   22.7424 C   0  0  0  0  0  0  0  0  0  0  0  0
    9.7059   -1.1462   22.2129 C   0  0  0  0  0  0  0  0  0  0  0  0
    8.3417    0.8051   23.0448 C   0  0  0  0  0  0  0  0  0  0  0  0
    7.6992    1.2658   21.7466 C   0  0  0  0  0  0  0  0  0  0  0  0
    8.3392    1.9576   20.9546 O   0  0  0  0  0  0  0  0  0  0  0  0
    6.3790    0.9031   21.4513 N   0  0  0  0  0  0  0  0  0  0  0  0
    5.3397    1.8549   21.0431 C   0  0  1  0  0  0  0  0  0  0  0  0
    5.8748   -0.4736   21.5100 C   0  0  0  0  0  0  0  0  0  0  0  0
    4.4134    1.0676   20.1464 C   0  0  0  0  0  0  0  0  0  0  0  0
    4.5500    2.3212   22.2554 C   0  0  0  0  0  0  0  0  0  0  0  0
    5.8429   -0.9134   20.0598 C   0  0  0  0  0  0  0  0  0  0  0  0
    5.3095    0.2376   19.3336 N   0  0  0  0  0  0  0  0  0  0  0  0
    3.7097    3.4755   21.8810 N   0  0  0  0  0  0  0  0  0  0  0  0
    5.6385    0.5234   18.0031 C   0  0  0  0  0  0  0  0  0  0  0  0
    4.0456    4.8079   22.0662 C   0  0  0  0  0  0  0  0  0  0  0  0
    2.3821    3.3965   21.2692 C   0  0  0  0  0  0  0  0  0  0  0  0
    6.1835   -0.3327   17.3063 O   0  0  0  0  0  0  0  0  0  0  0  0
    5.3225    1.8906   17.4190 C   0  0  0  0  0  0  0  0  0  0  0  0
    5.0532    5.2030   22.6251 O   0  0  0  0  0  0  0  0  0  0  0  0
    3.0922    5.5998   21.5367 O   0  0  0  0  0  0  0  0  0  0  0  0
    2.1020    4.8410   20.8727 C   0  0  0  0  0  0  0  0  0  0  0  0
   10.8196    1.7606   23.3840 H   0  0  0  0  0  0  0  0  0  0  0  0
   10.9558   -2.6793   21.5551 H   0  0  0  0  0  0  0  0  0  0  0  0
    8.8514   -1.6330   22.0312 H   0  0  0  0  0  0  0  0  0  0  0  0
    8.4906    1.5938   23.6413 H   0  0  0  0  0  0  0  0  0  0  0  0
    7.7386    0.1511   23.5015 H   0  0  0  0  0  0  0  0  0  0  0  0
    5.7372    2.6313   20.5542 H   0  0  0  0  0  0  0  0  0  0  0  0
    4.9586   -0.5000   21.9099 H   0  0  0  0  0  0  0  0  0  0  0  0
    6.4886   -1.0546   22.0444 H   0  0  0  0  0  0  0  0  0  0  0  0
    3.8763    1.6807   19.5669 H   0  0  0  0  0  0  0  0  0  0  0  0
    3.7970    0.4966   20.6886 H   0  0  0  0  0  0  0  0  0  0  0  0
    5.1825    2.5909   22.9816 H   0  0  0  0  0  0  0  0  0  0  0  0
    3.9674    1.5763   22.5805 H   0  0  0  0  0  0  0  0  0  0  0  0
    5.2477   -1.7089   19.9457 H   0  0  0  0  0  0  0  0  0  0  0  0
    6.7633   -1.1369   19.7389 H   0  0  0  0  0  0  0  0  0  0  0  0
    1.7033    3.0654   21.9245 H   0  0  0  0  0  0  0  0  0  0  0  0
    2.3907    2.7988   20.4674 H   0  0  0  0  0  0  0  0  0  0  0  0
    5.6222    1.9231   16.4655 H   0  0  0  0  0  0  0  0  0  0  0  0
    4.3368    2.0528   17.4643 H   0  0  0  0  0  0  0  0  0  0  0  0
    5.8008    2.5955   17.9428 H   0  0  0  0  0  0  0  0  0  0  0  0
    1.1884    5.1168   21.1716 H   0  0  0  0  0  0  0  0  0  0  0  0
    2.1772    4.9547   19.8821 H   0  0  0  0  0  0  0  0  0  0  0  0
  1  2  1  0  0  0  0
  2  3  2  0  0  0  0
  2  4  1  0  0  0  0
  3  5  1  0  0  0  0
  3  6  1  0  0  0  0
  4  7  2  0  0  0  0
  6  8  2  0  0  0  0
  7  9  1  0  0  0  0
  9 10  1  0  0  0  0
 10 11  2  0  0  0  0
 10 12  1  0  0  0  0
 12 13  1  0  0  0  0
 12 14  1  0  0  0  0
 13 15  1  0  0  0  0
 13 16  1  0  0  0  0
 14 17  1  0  0  0  0
 15 18  1  0  0  0  0
 16 19  1  0  0  0  0
 18 20  1  0  0  0  0
 19 21  1  0  0  0  0
 19 22  1  0  0  0  0
 20 23  2  0  0  0  0
 20 24  1  0  0  0  0
 21 25  2  0  0  0  0
 21 26  1  0  0  0  0
 22 27  1  0  0  0  0
  7  8  1  0  0  0  0
 17 18  1  0  0  0  0
 26 27  1  0  0  0  0
  4 28  1  0  0  0  0
  6 29  1  0  0  0  0
  8 30  1  0  0  0  0
  9 31  1  0  0  0  0
  9 32  1  0  0  0  0
 13 33  1  0  0  0  0
 14 34  1  0  0  0  0
 14 35  1  0  0  0  0
 15 36  1  0  0  0  0
 15 37  1  0  0  0  0
 16 38  1  0  0  0  0
 16 39  1  0  0  0  0
 17 40  1  0  0  0  0
 17 41  1  0  0  0  0
 22 42  1  0  0  0  0
 22 43  1  0  0  0  0
 24 44  1  0  0  0  0
 24 45  1  0  0  0  0
 24 46  1  0  0  0  0
 27 47  1  0  0  0  0
 27 48  1  0  0  0  0
M  END
> <BIOSOLVEIT.HYDE_ESTIMATED_AFFINITY_LOWER_BOUNDARY [nM]>
433.362350

> <BIOSOLVEIT.HYDE_ESTIMATED_AFFINITY_UPPER_BOUNDARY [nM]>
43057.111754

> <BIOSOLVEIT.HYDE_LIGAND_EFFICIENCY range: ++, +, 0, -, -->
-

> <BIOSOLVEIT.HYDE_LIGAND_LIPOPHILIC_EFFICIENCY range: ++, +, 0, -, -->
-

> <BIOSOLVEIT.INTER_CLASH range: red, yellow, green>
green

> <BIOSOLVEIT.INTRA_CLASH range: red, yellow, green>
green

> <BIOSOLVEIT.LOGP>
2.0474

> <BIOSOLVEIT.MOLECULAR WEIGHT>
414.287

> <BIOSOLVEIT.MOLECULE_CHECKSUM>
LTMwLjYyMDk7MS4xMzQxMQ==

> <BIOSOLVEIT.TORSION_QUALITY range: red, yellow, green, not rotatable>
yellow

> <BIOSOLVEIT.TPSA>
70.16

> <BIOSOLVEIT.SEESAR_FAVORITE>
favorite

> <smc_score>
0.563

> <QED_score>
0.756

> <distance>
0.732

> <SimilarityPheSA_1>
0.63

> <Smiles>
CC(=O)N1CCN(C(=O)Cc2ccc(Cl)c(Cl)c2)C(CN2CCOC2=O)C1

> <Similarity_SkelSpheres>
0.618

> <Cluster No>
12.0

> <QueryID>
MAT-POS-bb423b95-1

> <SimilarityPheSA>
0.6302

> <Postera series>
3-aminopyridine-like

> <PDB_code>
Mpro-x11542

> <Approach>
DGM_exploratory_RL

> <ID>
20210628_30

> <SimilarityPheSA_2>
0.613

> <OPTIBRIUM.logD>
1.39605

> <OPTIBRIUM.BBB category>
-

> <OPTIBRIUM.logP>
1.39605

> <OPTIBRIUM.P-gp category>
yes

> <OPTIBRIUM.logS>
3.56248

> <OPTIBRIUM.HIA category>
+

> <OPTIBRIUM.PPB90 category>
low

> <OPTIBRIUM.2D6 affinity category>
medium

> <OPTIBRIUM.hERG pIC50>
4.67136

> <OPTIBRIUM.2C9 pKi>
4.76795

> <OPTIBRIUM.BBB log([brain]:[blood])>
-0.889797

> <OPTIBRIUM.logS @ pH7.4>
3.56248

$$$$
Compound 129_1_03
haSeeSAR  07122111353D 1   1.00000     0.00000     0
SeeSAR 11.0.2 hazemaj
 40 42  0  0  0  0            999 V2000
   12.7514    0.5926   25.1917 Cl  0  0  0  0  0  0  0  0  0  0  0  0
   12.0633   -0.1688   23.7373 C   0  0  0  0  0  0  0  0  0  0  0  0
   10.6904   -0.3223   23.5939 C   0  0  0  0  0  0  0  0  0  0  0  0
   12.9615   -0.6085   22.7699 C   0  0  0  0  0  0  0  0  0  0  0  0
    9.8247    0.0786   24.5593 O   0  0  0  0  0  0  0  0  0  0  0  0
   10.2492   -0.9247   22.4173 C   0  0  0  0  0  0  0  0  0  0  0  0
   12.4802   -1.2187   21.6123 C   0  0  0  0  0  0  0  0  0  0  0  0
    8.4272    0.2216   24.3313 C   0  0  0  0  0  0  0  0  0  0  0  0
   11.1119   -1.3813   21.4263 C   0  0  0  0  0  0  0  0  0  0  0  0
    8.7529   -1.0875   22.1969 C   0  0  1  0  0  0  0  0  0  0  0  0
   13.5860   -1.7931   20.3394 Cl  0  0  0  0  0  0  0  0  0  0  0  0
    7.9541   -0.9524   23.4850 C   0  0  1  0  0  0  0  0  0  0  0  0
    8.2179   -0.0483   21.2165 C   0  0  0  0  0  0  0  0  0  0  0  0
    8.0231   -2.2051   24.3477 C   0  0  0  0  0  0  0  0  0  0  0  0
    8.9726    0.8067   20.7532 O   0  0  0  0  0  0  0  0  0  0  0  0
    6.9427   -0.0661   20.8641 N   0  0  0  0  0  0  0  0  0  0  0  0
    6.5600    0.3905   19.5964 C   0  0  0  0  0  0  0  0  0  0  0  0
    5.4327    1.0897   19.2989 N   0  0  0  0  0  0  0  0  0  0  0  0
    7.2559    0.2071   18.4410 C   0  0  0  0  0  0  0  0  0  0  0  0
    5.4392    1.3335   17.9577 C   0  0  0  0  0  0  0  0  0  0  0  0
    4.3924    1.5090   20.2488 C   0  0  0  0  0  0  0  0  0  0  0  0
    6.5311    0.8026   17.4523 N   0  0  0  0  0  0  0  0  0  0  0  0
    4.8405    2.7720   20.9660 C   0  0  0  0  0  0  0  0  0  0  0  0
   13.9450   -0.4878   22.9038 H   0  0  0  0  0  0  0  0  0  0  0  0
    8.2501    1.0790   23.8480 H   0  0  0  0  0  0  0  0  0  0  0  0
    7.9414    0.2251   25.2053 H   0  0  0  0  0  0  0  0  0  0  0  0
   10.7561   -1.8166   20.5992 H   0  0  0  0  0  0  0  0  0  0  0  0
    8.5865   -1.9969   21.8158 H   0  0  0  0  0  0  0  0  0  0  0  0
    6.9970   -0.7947   23.2420 H   0  0  0  0  0  0  0  0  0  0  0  0
    7.7169   -2.9941   23.8150 H   0  0  0  0  0  0  0  0  0  0  0  0
    8.9656   -2.3514   24.6482 H   0  0  0  0  0  0  0  0  0  0  0  0
    7.4322   -2.0927   25.1466 H   0  0  0  0  0  0  0  0  0  0  0  0
    6.2522   -0.4056   21.5028 H   0  0  0  0  0  0  0  0  0  0  0  0
    8.1281   -0.2708   18.3377 H   0  0  0  0  0  0  0  0  0  0  0  0
    4.7366    1.8292   17.4473 H   0  0  0  0  0  0  0  0  0  0  0  0
    4.2394    0.7819   20.9181 H   0  0  0  0  0  0  0  0  0  0  0  0
    3.5426    1.6904   19.7537 H   0  0  0  0  0  0  0  0  0  0  0  0
    4.1327    3.0572   21.6123 H   0  0  0  0  0  0  0  0  0  0  0  0
    5.6902    2.5905   21.4611 H   0  0  0  0  0  0  0  0  0  0  0  0
    4.9934    3.4990   20.2967 H   0  0  0  0  0  0  0  0  0  0  0  0
  1  2  1  0  0  0  0
  2  3  2  0  0  0  0
  2  4  1  0  0  0  0
  3  5  1  0  0  0  0
  3  6  1  0  0  0  0
  4  7  2  0  0  0  0
  5  8  1  0  0  0  0
  6  9  2  0  0  0  0
  6 10  1  0  0  0  0
  7 11  1  0  0  0  0
  8 12  1  0  0  0  0
 10 13  1  0  0  0  0
 12 14  1  0  0  0  0
 13 15  2  0  0  0  0
 13 16  1  0  0  0  0
 16 17  1  0  0  0  0
 17 18  1  0  0  0  0
 17 19  2  0  0  0  0
 18 20  1  0  0  0  0
 18 21  1  0  0  0  0
 19 22  1  0  0  0  0
 21 23  1  0  0  0  0
  7  9  1  0  0  0  0
 10 12  1  0  0  0  0
 20 22  2  0  0  0  0
  4 24  1  0  0  0  0
  8 25  1  0  0  0  0
  8 26  1  0  0  0  0
  9 27  1  0  0  0  0
 10 28  1  0  0  0  0
 12 29  1  0  0  0  0
 14 30  1  0  0  0  0
 14 31  1  0  0  0  0
 14 32  1  0  0  0  0
 16 33  1  0  0  0  0
 19 34  1  0  0  0  0
 20 35  1  0  0  0  0
 21 36  1  0  0  0  0
 21 37  1  0  0  0  0
 23 38  1  0  0  0  0
 23 39  1  0  0  0  0
 23 40  1  0  0  0  0
M  END
> <BIOSOLVEIT.HYDE_ESTIMATED_AFFINITY_LOWER_BOUNDARY [nM]>
454.885584

> <BIOSOLVEIT.HYDE_ESTIMATED_AFFINITY_UPPER_BOUNDARY [nM]>
45195.572268

> <BIOSOLVEIT.HYDE_LIGAND_EFFICIENCY range: ++, +, 0, -, -->
0

> <BIOSOLVEIT.HYDE_LIGAND_LIPOPHILIC_EFFICIENCY range: ++, +, 0, -, -->
--

> <BIOSOLVEIT.INTER_CLASH range: red, yellow, green>
red

> <BIOSOLVEIT.INTRA_CLASH range: red, yellow, green>
green

> <BIOSOLVEIT.LOGP>
3.9606

> <BIOSOLVEIT.MOLECULAR WEIGHT>
354.235

> <BIOSOLVEIT.MOLECULE_CHECKSUM>
LTMwLjUwMDg7MS4zMjYxMg==

> <BIOSOLVEIT.TORSION_QUALITY range: red, yellow, green, not rotatable>
green

> <BIOSOLVEIT.TPSA>
56.15

> <BIOSOLVEIT.SEESAR_FAVORITE>
favorite

> <smc_score>
1.0

> <QED_score>
0.908

> <distance>
0.569

> <SimilarityPheSA_1>
0.705

> <Smiles>
CCn1cncc1NC(=O)C1c2cc(Cl)cc(Cl)c2OCC1C

> <Similarity_SkelSpheres>
0.646

> <Cluster No>
61.0

> <QueryID>
JAG-UCB-a3ef7265-20

> <SimilarityPheSA>
0.7047

> <Postera series>
3-aminopyridine-like

> <PDB_code>
Mpro-x10324

> <Approach>
DGM_focussed_RL

> <ID>
20210618_128

> <SimilarityPheSA_2>
0.826

> <OPTIBRIUM.logD>
3.837

> <OPTIBRIUM.BBB category>
-

> <OPTIBRIUM.logP>
3.837

> <OPTIBRIUM.P-gp category>
no

> <OPTIBRIUM.logS>
1.37148

> <OPTIBRIUM.HIA category>
+

> <OPTIBRIUM.PPB90 category>
high

> <OPTIBRIUM.2D6 affinity category>
high

> <OPTIBRIUM.hERG pIC50>
4.74232

> <OPTIBRIUM.2C9 pKi>
5.24386

> <OPTIBRIUM.BBB log([brain]:[blood])>
-0.0576938

> <OPTIBRIUM.logS @ pH7.4>
1.37148

$$$$
Compound 904_1_2
haSeeSAR  07122111353D 1   1.00000     0.00000     0
SeeSAR 11.0.2 hazemaj
 42 43  0  0  0  0            999 V2000
    4.6922    5.1556   23.2269 Cl  0  0  0  0  0  0  0  0  0  0  0  0
    4.2833    3.8409   22.0997 C   0  0  0  0  0  0  0  0  0  0  0  0
    2.9518    3.5460   21.8295 C   0  0  0  0  0  0  0  0  0  0  0  0
    5.3029    3.1143   21.4948 C   0  0  0  0  0  0  0  0  0  0  0  0
    1.9893    4.2516   22.4164 F   0  0  0  0  0  0  0  0  0  0  0  0
    2.6191    2.5201   20.9513 C   0  0  0  0  0  0  0  0  0  0  0  0
    4.9659    2.0899   20.6174 C   0  0  0  0  0  0  0  0  0  0  0  0
    3.6353    1.7905   20.3436 C   0  0  0  0  0  0  0  0  0  0  0  0
    6.0704    1.2889   19.9484 C   0  0  1  0  0  0  0  0  0  0  0  0
    6.7301    0.4351   20.9467 N   0  0  0  0  0  0  0  0  0  0  0  0
    5.4738    0.4197   18.8534 C   0  0  0  0  0  0  0  0  0  0  0  0
    7.9277    0.7588   21.4062 C   0  0  0  0  0  0  0  0  0  0  0  0
    6.0591   -0.7784   21.4346 C   0  0  0  0  0  0  0  0  0  0  0  0
    5.5042    1.1745   17.5343 C   0  0  0  0  0  0  0  0  0  0  0  0
    8.6319    1.5534   20.7830 O   0  0  0  0  0  0  0  0  0  0  0  0
    8.4343    0.1498   22.7035 C   0  0  0  0  0  0  0  0  0  0  0  0
    6.8488    1.3132   17.0993 O   0  0  0  0  0  0  0  0  0  0  0  0
    9.9498    0.0442   22.6557 C   0  0  0  0  0  0  0  0  0  0  0  0
   10.5519   -1.0920   22.1256 C   0  0  0  0  0  0  0  0  0  0  0  0
   10.7204    1.0921   23.1468 C   0  0  0  0  0  0  0  0  0  0  0  0
    9.7970   -2.0837   21.6608 F   0  0  0  0  0  0  0  0  0  0  0  0
   11.9372   -1.2002   22.0784 C   0  0  0  0  0  0  0  0  0  0  0  0
   12.1060    0.9831   23.0978 C   0  0  0  0  0  0  0  0  0  0  0  0
   12.7089   -0.1526   22.5687 C   0  0  0  0  0  0  0  0  0  0  0  0
   12.8636    1.9733   23.5606 F   0  0  0  0  0  0  0  0  0  0  0  0
   14.0350   -0.2445   22.5281 F   0  0  0  0  0  0  0  0  0  0  0  0
    6.2613    3.3248   21.6874 H   0  0  0  0  0  0  0  0  0  0  0  0
    1.6606    2.3096   20.7591 H   0  0  0  0  0  0  0  0  0  0  0  0
    3.4095    1.0506   19.7098 H   0  0  0  0  0  0  0  0  0  0  0  0
    6.7408    1.9143   19.5493 H   0  0  0  0  0  0  0  0  0  0  0  0
    4.5279    0.1930   19.0859 H   0  0  0  0  0  0  0  0  0  0  0  0
    6.0069   -0.4220   18.7682 H   0  0  0  0  0  0  0  0  0  0  0  0
    6.6440   -1.2365   22.1040 H   0  0  0  0  0  0  0  0  0  0  0  0
    5.1915   -0.5294   21.8652 H   0  0  0  0  0  0  0  0  0  0  0  0
    5.8853   -1.3949   20.6666 H   0  0  0  0  0  0  0  0  0  0  0  0
    5.0991    2.0802   17.6591 H   0  0  0  0  0  0  0  0  0  0  0  0
    4.9825    0.6675   16.8481 H   0  0  0  0  0  0  0  0  0  0  0  0
    8.0401   -0.7618   22.8199 H   0  0  0  0  0  0  0  0  0  0  0  0
    8.1647    0.7303   23.4717 H   0  0  0  0  0  0  0  0  0  0  0  0
    7.1651    0.4469   16.7126 H   0  0  0  0  0  0  0  0  0  0  0  0
   10.2866    1.9085   23.5281 H   0  0  0  0  0  0  0  0  0  0  0  0
   12.3711   -2.0170   21.6984 H   0  0  0  0  0  0  0  0  0  0  0  0
  1  2  1  0  0  0  0
  2  3  2  0  0  0  0
  2  4  1  0  0  0  0
  3  5  1  0  0  0  0
  3  6  1  0  0  0  0
  4  7  2  0  0  0  0
  6  8  2  0  0  0  0
  7  9  1  0  0  0  0
  9 10  1  0  0  0  0
  9 11  1  0  0  0  0
 10 12  1  0  0  0  0
 10 13  1  0  0  0  0
 11 14  1  0  0  0  0
 12 15  2  0  0  0  0
 12 16  1  0  0  0  0
 14 17  1  0  0  0  0
 16 18  1  0  0  0  0
 18 19  2  0  0  0  0
 18 20  1  0  0  0  0
 19 21  1  0  0  0  0
 19 22  1  0  0  0  0
 20 23  2  0  0  0  0
 22 24  2  0  0  0  0
 23 25  1  0  0  0  0
 24 26  1  0  0  0  0
  7  8  1  0  0  0  0
 23 24  1  0  0  0  0
  4 27  1  0  0  0  0
  6 28  1  0  0  0  0
  8 29  1  0  0  0  0
  9 30  1  0  0  0  0
 11 31  1  0  0  0  0
 11 32  1  0  0  0  0
 13 33  1  0  0  0  0
 13 34  1  0  0  0  0
 13 35  1  0  0  0  0
 14 36  1  0  0  0  0
 14 37  1  0  0  0  0
 16 38  1  0  0  0  0
 16 39  1  0  0  0  0
 17 40  1  0  0  0  0
 20 41  1  0  0  0  0
 22 42  1  0  0  0  0
M  END
> <BIOSOLVEIT.HYDE_ESTIMATED_AFFINITY_LOWER_BOUNDARY [nM]>
488.670599

> <BIOSOLVEIT.HYDE_ESTIMATED_AFFINITY_UPPER_BOUNDARY [nM]>
48552.313254

> <BIOSOLVEIT.HYDE_LIGAND_EFFICIENCY range: ++, +, 0, -, -->
-

> <BIOSOLVEIT.HYDE_LIGAND_LIPOPHILIC_EFFICIENCY range: ++, +, 0, -, -->
--

> <BIOSOLVEIT.INTER_CLASH range: red, yellow, green>
green

> <BIOSOLVEIT.INTRA_CLASH range: red, yellow, green>
green

> <BIOSOLVEIT.LOGP>
4.021

> <BIOSOLVEIT.MOLECULAR WEIGHT>
389.774

> <BIOSOLVEIT.MOLECULE_CHECKSUM>
LTMwLjMyMzI7MS4xNjYyOA==

> <BIOSOLVEIT.TORSION_QUALITY range: red, yellow, green, not rotatable>
green

> <BIOSOLVEIT.TPSA>
40.54

> <BIOSOLVEIT.SEESAR_FAVORITE>
favorite

> <smc_score>
1.0

> <QED_score>
0.599

> <distance>
0.727

> <SimilarityPheSA_1>
0.65

> <Smiles>
CN(C(=O)Cc1cc(F)c(F)cc1F)C(CCO)c1ccc(F)c(Cl)c1

> <Similarity_SkelSpheres>
0.619

> <Cluster No>
72.0

> <QueryID>
MAT-POS-bb423b95-1

> <SimilarityPheSA>
0.6502

> <Postera series>
3-aminopyridine-like

> <PDB_code>
Mpro-x11542

> <Approach>
DGM_exploratory_RL

> <ID>
20210628_174

> <SimilarityPheSA_2>
0.74

> <OPTIBRIUM.logD>
3.32134

> <OPTIBRIUM.BBB category>
+

> <OPTIBRIUM.logP>
3.32134

> <OPTIBRIUM.P-gp category>
no

> <OPTIBRIUM.logS>
0.518705

> <OPTIBRIUM.HIA category>
+

> <OPTIBRIUM.PPB90 category>
high

> <OPTIBRIUM.2D6 affinity category>
high

> <OPTIBRIUM.hERG pIC50>
6.1904

> <OPTIBRIUM.2C9 pKi>
5.68501

> <OPTIBRIUM.BBB log([brain]:[blood])>
-0.176922

> <OPTIBRIUM.logS @ pH7.4>
0.518705

$$$$
Compound 118_1_10
haSeeSAR  07122111353D 1   1.00000     0.00000     0
SeeSAR 11.0.2 hazemaj
 46 49  0  0  0  0            999 V2000
    6.2139    2.6251   24.9370 Cl  0  0  0  0  0  0  0  0  0  0  0  0
    7.5102    1.6158   25.6230 C   0  0  0  0  0  0  0  0  0  0  0  0
    7.7208    1.5935   26.9975 C   0  0  0  0  0  0  0  0  0  0  0  0
    8.3036    0.8530   24.7739 C   0  0  0  0  0  0  0  0  0  0  0  0
    6.6916    2.5802   28.0628 Cl  0  0  0  0  0  0  0  0  0  0  0  0
    8.7300    0.8071   27.5443 C   0  0  0  0  0  0  0  0  0  0  0  0
    9.3109    0.0693   25.3256 C   0  0  0  0  0  0  0  0  0  0  0  0
    9.5276    0.0429   26.6992 C   0  0  0  0  0  0  0  0  0  0  0  0
   10.1876   -0.7713   24.4126 C   0  0  1  0  0  0  0  0  0  0  0  0
    9.4557   -2.0692   24.1183 C   0  0  1  0  0  0  0  0  0  0  0  0
   10.3938   -0.0836   23.0792 C   0  0  0  0  0  0  0  0  0  0  0  0
    9.1976   -2.0543   22.6281 C   0  0  0  0  0  0  0  0  0  0  0  0
   10.2930   -3.2786   24.5029 C   0  0  0  0  0  0  0  0  0  0  0  0
    9.3428   -0.6509   22.2402 N   0  0  0  0  0  0  0  0  0  0  0  0
    8.6196    0.0157   21.2457 C   0  0  0  0  0  0  0  0  0  0  0  0
    9.0280    1.0522   20.7995 O   0  0  0  0  0  0  0  0  0  0  0  0
    7.4450   -0.5146   20.7808 N   0  0  0  0  0  0  0  0  0  0  0  0
    6.7206    0.1533   19.7845 C   0  0  0  0  0  0  0  0  0  0  0  0
    5.5551    0.8679   20.0545 C   0  0  0  0  0  0  0  0  0  0  0  0
    7.1898    0.0965   18.4764 C   0  0  0  0  0  0  0  0  0  0  0  0
    4.8943    1.5032   19.0075 C   0  0  0  0  0  0  0  0  0  0  0  0
    5.0278    0.9672   21.3392 C   0  0  0  0  0  0  0  0  0  0  0  0
    6.5311    0.7188   17.4869 N   0  0  0  0  0  0  0  0  0  0  0  0
    5.4067    1.4144   17.7165 C   0  0  0  0  0  0  0  0  0  0  0  0
    3.7285    2.2235   19.2485 C   0  0  0  0  0  0  0  0  0  0  0  0
    3.8638    1.6819   21.5999 C   0  0  0  0  0  0  0  0  0  0  0  0
    3.2195    2.3099   20.5397 C   0  0  0  0  0  0  0  0  0  0  0  0
    8.1530    0.8676   23.7854 H   0  0  0  0  0  0  0  0  0  0  0  0
    8.8801    0.7916   28.5328 H   0  0  0  0  0  0  0  0  0  0  0  0
   10.2571   -0.5258   27.0792 H   0  0  0  0  0  0  0  0  0  0  0  0
   11.0678   -0.9581   24.8489 H   0  0  0  0  0  0  0  0  0  0  0  0
    8.5866   -2.0877   24.6125 H   0  0  0  0  0  0  0  0  0  0  0  0
   11.2989   -0.2891   22.7068 H   0  0  0  0  0  0  0  0  0  0  0  0
   10.2864    0.9067   23.1668 H   0  0  0  0  0  0  0  0  0  0  0  0
    8.2745   -2.3822   22.4267 H   0  0  0  0  0  0  0  0  0  0  0  0
    9.8655   -2.6237   22.1488 H   0  0  0  0  0  0  0  0  0  0  0  0
    9.7847   -4.1149   24.2974 H   0  0  0  0  0  0  0  0  0  0  0  0
   11.1473   -3.2715   23.9833 H   0  0  0  0  0  0  0  0  0  0  0  0
   10.4976   -3.2448   25.4812 H   0  0  0  0  0  0  0  0  0  0  0  0
    7.1047   -1.3783   21.1525 H   0  0  0  0  0  0  0  0  0  0  0  0
    8.0258   -0.4127   18.2716 H   0  0  0  0  0  0  0  0  0  0  0  0
    5.4988    0.5123   22.0949 H   0  0  0  0  0  0  0  0  0  0  0  0
    4.9367    1.8689   16.9598 H   0  0  0  0  0  0  0  0  0  0  0  0
    3.2568    2.6789   18.4935 H   0  0  0  0  0  0  0  0  0  0  0  0
    3.4985    1.7428   22.5288 H   0  0  0  0  0  0  0  0  0  0  0  0
    2.3814    2.8290   20.7076 H   0  0  0  0  0  0  0  0  0  0  0  0
  1  2  1  0  0  0  0
  2  3  2  0  0  0  0
  2  4  1  0  0  0  0
  3  5  1  0  0  0  0
  3  6  1  0  0  0  0
  4  7  2  0  0  0  0
  6  8  2  0  0  0  0
  7  9  1  0  0  0  0
  9 10  1  0  0  0  0
  9 11  1  0  0  0  0
 10 12  1  0  0  0  0
 10 13  1  0  0  0  0
 11 14  1  0  0  0  0
 14 15  1  0  0  0  0
 15 16  2  0  0  0  0
 15 17  1  0  0  0  0
 17 18  1  0  0  0  0
 18 19  1  0  0  0  0
 18 20  2  0  0  0  0
 19 21  1  0  0  0  0
 19 22  2  0  0  0  0
 20 23  1  0  0  0  0
 21 24  1  0  0  0  0
 21 25  2  0  0  0  0
 22 26  1  0  0  0  0
 25 27  1  0  0  0  0
  7  8  1  0  0  0  0
 12 14  1  0  0  0  0
 23 24  2  0  0  0  0
 26 27  2  0  0  0  0
  4 28  1  0  0  0  0
  6 29  1  0  0  0  0
  8 30  1  0  0  0  0
  9 31  1  0  0  0  0
 10 32  1  0  0  0  0
 11 33  1  0  0  0  0
 11 34  1  0  0  0  0
 12 35  1  0  0  0  0
 12 36  1  0  0  0  0
 13 37  1  0  0  0  0
 13 38  1  0  0  0  0
 13 39  1  0  0  0  0
 17 40  1  0  0  0  0
 20 41  1  0  0  0  0
 22 42  1  0  0  0  0
 24 43  1  0  0  0  0
 25 44  1  0  0  0  0
 26 45  1  0  0  0  0
 27 46  1  0  0  0  0
M  END
> <BIOSOLVEIT.HYDE_ESTIMATED_AFFINITY_LOWER_BOUNDARY [nM]>
537.728941

> <BIOSOLVEIT.HYDE_ESTIMATED_AFFINITY_UPPER_BOUNDARY [nM]>
53426.549553

> <BIOSOLVEIT.HYDE_LIGAND_EFFICIENCY range: ++, +, 0, -, -->
-

> <BIOSOLVEIT.HYDE_LIGAND_LIPOPHILIC_EFFICIENCY range: ++, +, 0, -, -->
--

> <BIOSOLVEIT.INTER_CLASH range: red, yellow, green>
green

> <BIOSOLVEIT.INTRA_CLASH range: red, yellow, green>
green

> <BIOSOLVEIT.LOGP>
5.809

> <BIOSOLVEIT.MOLECULAR WEIGHT>
400.307

> <BIOSOLVEIT.MOLECULE_CHECKSUM>
LTMwLjA4NjsxLjExNDM=

> <BIOSOLVEIT.TORSION_QUALITY range: red, yellow, green, not rotatable>
green

> <BIOSOLVEIT.TPSA>
45.23

> <BIOSOLVEIT.SEESAR_FAVORITE>
favorite

> <smc_score>
0.563

> <QED_score>
0.59

> <distance>
0.508

> <SimilarityPheSA_1>
0.655

> <Smiles>
CC1CN(C(=O)Nc2cncc3ccccc23)CC1c1ccc(Cl)c(Cl)c1

> <Similarity_SkelSpheres>
0.876

> <Cluster No>
54.0

> <QueryID>
ALP-POS-6d04362c-1

> <SimilarityPheSA>
0.6553

> <Postera series>
3-aminopyridine-like

> <PDB_code>
Mpro-x12419

> <Approach>
DGM_focussed_RL

> <ID>
20210618_117

> <SimilarityPheSA_2>
0.823

> <OPTIBRIUM.logD>
5.26895

> <OPTIBRIUM.BBB category>
+

> <OPTIBRIUM.logP>
5.26895

> <OPTIBRIUM.P-gp category>
no

> <OPTIBRIUM.logS>
-0.826632

> <OPTIBRIUM.HIA category>
+

> <OPTIBRIUM.PPB90 category>
high

> <OPTIBRIUM.2D6 affinity category>
high

> <OPTIBRIUM.hERG pIC50>
5.6988

> <OPTIBRIUM.2C9 pKi>
5.92936

> <OPTIBRIUM.BBB log([brain]:[blood])>
-0.069391

> <OPTIBRIUM.logS @ pH7.4>
-0.826632

$$$$
Compound 118_1_09
haSeeSAR  07122111353D 1   1.00000     0.00000     0
SeeSAR 11.0.2 hazemaj
 46 49  0  0  0  0            999 V2000
    6.2140    2.6252   24.9370 Cl  0  0  0  0  0  0  0  0  0  0  0  0
    7.5102    1.6158   25.6229 C   0  0  0  0  0  0  0  0  0  0  0  0
    7.7208    1.5937   26.9974 C   0  0  0  0  0  0  0  0  0  0  0  0
    8.3037    0.8530   24.7739 C   0  0  0  0  0  0  0  0  0  0  0  0
    6.6916    2.5805   28.0627 Cl  0  0  0  0  0  0  0  0  0  0  0  0
    8.7299    0.8072   27.5443 C   0  0  0  0  0  0  0  0  0  0  0  0
    9.3109    0.0693   25.3256 C   0  0  0  0  0  0  0  0  0  0  0  0
    9.5275    0.0429   26.6992 C   0  0  0  0  0  0  0  0  0  0  0  0
   10.1875   -0.7713   24.4126 C   0  0  1  0  0  0  0  0  0  0  0  0
    9.4557   -2.0692   24.1183 C   0  0  1  0  0  0  0  0  0  0  0  0
   10.3938   -0.0836   23.0792 C   0  0  0  0  0  0  0  0  0  0  0  0
    9.1975   -2.0543   22.6282 C   0  0  0  0  0  0  0  0  0  0  0  0
   10.2929   -3.2786   24.5030 C   0  0  0  0  0  0  0  0  0  0  0  0
    9.3428   -0.6510   22.2402 N   0  0  0  0  0  0  0  0  0  0  0  0
    8.6196    0.0157   21.2457 C   0  0  0  0  0  0  0  0  0  0  0  0
    9.0280    1.0521   20.7995 O   0  0  0  0  0  0  0  0  0  0  0  0
    7.4450   -0.5146   20.7808 N   0  0  0  0  0  0  0  0  0  0  0  0
    6.7206    0.1533   19.7845 C   0  0  0  0  0  0  0  0  0  0  0  0
    5.5551    0.8679   20.0545 C   0  0  0  0  0  0  0  0  0  0  0  0
    7.1898    0.0966   18.4764 C   0  0  0  0  0  0  0  0  0  0  0  0
    4.8943    1.5032   19.0075 C   0  0  0  0  0  0  0  0  0  0  0  0
    5.0277    0.9672   21.3392 C   0  0  0  0  0  0  0  0  0  0  0  0
    6.5312    0.7189   17.4870 N   0  0  0  0  0  0  0  0  0  0  0  0
    5.4067    1.4144   17.7165 C   0  0  0  0  0  0  0  0  0  0  0  0
    3.7285    2.2235   19.2485 C   0  0  0  0  0  0  0  0  0  0  0  0
    3.8637    1.6819   21.5999 C   0  0  0  0  0  0  0  0  0  0  0  0
    3.2194    2.3099   20.5397 C   0  0  0  0  0  0  0  0  0  0  0  0
    8.1530    0.8676   23.7853 H   0  0  0  0  0  0  0  0  0  0  0  0
    8.8799    0.7917   28.5328 H   0  0  0  0  0  0  0  0  0  0  0  0
   10.2570   -0.5259   27.0793 H   0  0  0  0  0  0  0  0  0  0  0  0
   11.0677   -0.9581   24.8489 H   0  0  0  0  0  0  0  0  0  0  0  0
    8.5865   -2.0877   24.6125 H   0  0  0  0  0  0  0  0  0  0  0  0
   11.2989   -0.2891   22.7069 H   0  0  0  0  0  0  0  0  0  0  0  0
   10.2864    0.9067   23.1668 H   0  0  0  0  0  0  0  0  0  0  0  0
    8.2745   -2.3822   22.4268 H   0  0  0  0  0  0  0  0  0  0  0  0
    9.8654   -2.6237   22.1489 H   0  0  0  0  0  0  0  0  0  0  0  0
    9.7846   -4.1149   24.2975 H   0  0  0  0  0  0  0  0  0  0  0  0
   11.1472   -3.2715   23.9834 H   0  0  0  0  0  0  0  0  0  0  0  0
   10.4975   -3.2448   25.4813 H   0  0  0  0  0  0  0  0  0  0  0  0
    7.1046   -1.3783   21.1526 H   0  0  0  0  0  0  0  0  0  0  0  0
    8.0258   -0.4126   18.2716 H   0  0  0  0  0  0  0  0  0  0  0  0
    5.4987    0.5123   22.0949 H   0  0  0  0  0  0  0  0  0  0  0  0
    4.9367    1.8689   16.9598 H   0  0  0  0  0  0  0  0  0  0  0  0
    3.2568    2.6789   18.4934 H   0  0  0  0  0  0  0  0  0  0  0  0
    3.4983    1.7428   22.5287 H   0  0  0  0  0  0  0  0  0  0  0  0
    2.3813    2.8290   20.7075 H   0  0  0  0  0  0  0  0  0  0  0  0
  1  2  1  0  0  0  0
  2  3  2  0  0  0  0
  2  4  1  0  0  0  0
  3  5  1  0  0  0  0
  3  6  1  0  0  0  0
  4  7  2  0  0  0  0
  6  8  2  0  0  0  0
  7  9  1  0  0  0  0
  9 10  1  0  0  0  0
  9 11  1  0  0  0  0
 10 12  1  0  0  0  0
 10 13  1  0  0  0  0
 11 14  1  0  0  0  0
 14 15  1  0  0  0  0
 15 16  2  0  0  0  0
 15 17  1  0  0  0  0
 17 18  1  0  0  0  0
 18 19  1  0  0  0  0
 18 20  2  0  0  0  0
 19 21  1  0  0  0  0
 19 22  2  0  0  0  0
 20 23  1  0  0  0  0
 21 24  1  0  0  0  0
 21 25  2  0  0  0  0
 22 26  1  0  0  0  0
 25 27  1  0  0  0  0
  7  8  1  0  0  0  0
 12 14  1  0  0  0  0
 23 24  2  0  0  0  0
 26 27  2  0  0  0  0
  4 28  1  0  0  0  0
  6 29  1  0  0  0  0
  8 30  1  0  0  0  0
  9 31  1  0  0  0  0
 10 32  1  0  0  0  0
 11 33  1  0  0  0  0
 11 34  1  0  0  0  0
 12 35  1  0  0  0  0
 12 36  1  0  0  0  0
 13 37  1  0  0  0  0
 13 38  1  0  0  0  0
 13 39  1  0  0  0  0
 17 40  1  0  0  0  0
 20 41  1  0  0  0  0
 22 42  1  0  0  0  0
 24 43  1  0  0  0  0
 25 44  1  0  0  0  0
 26 45  1  0  0  0  0
 27 46  1  0  0  0  0
M  END
> <BIOSOLVEIT.HYDE_ESTIMATED_AFFINITY_LOWER_BOUNDARY [nM]>
537.788680

> <BIOSOLVEIT.HYDE_ESTIMATED_AFFINITY_UPPER_BOUNDARY [nM]>
53432.484997

> <BIOSOLVEIT.HYDE_LIGAND_EFFICIENCY range: ++, +, 0, -, -->
-

> <BIOSOLVEIT.HYDE_LIGAND_LIPOPHILIC_EFFICIENCY range: ++, +, 0, -, -->
--

> <BIOSOLVEIT.INTER_CLASH range: red, yellow, green>
green

> <BIOSOLVEIT.INTRA_CLASH range: red, yellow, green>
green

> <BIOSOLVEIT.LOGP>
5.809

> <BIOSOLVEIT.MOLECULAR WEIGHT>
400.307

> <BIOSOLVEIT.MOLECULE_CHECKSUM>
LTMwLjA4NTc7MS4xMTQyOQ==

> <BIOSOLVEIT.TORSION_QUALITY range: red, yellow, green, not rotatable>
green

> <BIOSOLVEIT.TPSA>
45.23

> <BIOSOLVEIT.SEESAR_FAVORITE>
favorite

> <smc_score>
0.563

> <QED_score>
0.59

> <distance>
0.508

> <SimilarityPheSA_1>
0.655

> <Smiles>
CC1CN(C(=O)Nc2cncc3ccccc23)CC1c1ccc(Cl)c(Cl)c1

> <Similarity_SkelSpheres>
0.876

> <Cluster No>
54.0

> <QueryID>
ALP-POS-6d04362c-1

> <SimilarityPheSA>
0.6553

> <Postera series>
3-aminopyridine-like

> <PDB_code>
Mpro-x12419

> <Approach>
DGM_focussed_RL

> <ID>
20210618_117

> <SimilarityPheSA_2>
0.823

> <OPTIBRIUM.logD>
5.26895

> <OPTIBRIUM.BBB category>
+

> <OPTIBRIUM.logP>
5.26895

> <OPTIBRIUM.P-gp category>
no

> <OPTIBRIUM.logS>
-0.826632

> <OPTIBRIUM.HIA category>
+

> <OPTIBRIUM.PPB90 category>
high

> <OPTIBRIUM.2D6 affinity category>
high

> <OPTIBRIUM.hERG pIC50>
5.6988

> <OPTIBRIUM.2C9 pKi>
5.92936

> <OPTIBRIUM.BBB log([brain]:[blood])>
-0.069391

> <OPTIBRIUM.logS @ pH7.4>
-0.826632

$$$$
Compound 118_1_05
haSeeSAR  07122111353D 1   1.00000     0.00000     0
SeeSAR 11.0.2 hazemaj
 46 49  0  0  0  0            999 V2000
    8.2033    0.1578   29.3011 Cl  0  0  0  0  0  0  0  0  0  0  0  0
    8.1835    0.4203   27.5403 C   0  0  0  0  0  0  0  0  0  0  0  0
    7.2777    1.3148   26.9807 C   0  0  0  0  0  0  0  0  0  0  0  0
    9.0801   -0.2740   26.7361 C   0  0  0  0  0  0  0  0  0  0  0  0
    6.1396    2.1904   28.0323 Cl  0  0  0  0  0  0  0  0  0  0  0  0
    7.2547    1.5287   25.6061 C   0  0  0  0  0  0  0  0  0  0  0  0
    9.0524   -0.0567   25.3631 C   0  0  0  0  0  0  0  0  0  0  0  0
    8.1488    0.8359   24.7966 C   0  0  0  0  0  0  0  0  0  0  0  0
   10.0255   -0.8065   24.4689 C   0  0  1  0  0  0  0  0  0  0  0  0
    9.3900   -2.1317   24.0856 C   0  0  1  0  0  0  0  0  0  0  0  0
   10.2601   -0.0537   23.1759 C   0  0  0  0  0  0  0  0  0  0  0  0
    9.2107   -2.0707   22.5850 C   0  0  0  0  0  0  0  0  0  0  0  0
   10.2773   -3.3050   24.4700 C   0  0  0  0  0  0  0  0  0  0  0  0
    9.2911   -0.6465   22.2592 N   0  0  0  0  0  0  0  0  0  0  0  0
    8.5827    0.0171   21.2520 C   0  0  0  0  0  0  0  0  0  0  0  0
    9.0108    1.0388   20.7907 O   0  0  0  0  0  0  0  0  0  0  0  0
    7.3999   -0.4993   20.7925 N   0  0  0  0  0  0  0  0  0  0  0  0
    6.6901    0.1655   19.7836 C   0  0  0  0  0  0  0  0  0  0  0  0
    5.5234    0.8849   20.0350 C   0  0  0  0  0  0  0  0  0  0  0  0
    7.1758    0.1007   18.4818 C   0  0  0  0  0  0  0  0  0  0  0  0
    4.8779    1.5166   18.9764 C   0  0  0  0  0  0  0  0  0  0  0  0
    4.9800    0.9922   21.3123 C   0  0  0  0  0  0  0  0  0  0  0  0
    6.5317    0.7197   17.4809 N   0  0  0  0  0  0  0  0  0  0  0  0
    5.4064    1.4197   17.6925 C   0  0  0  0  0  0  0  0  0  0  0  0
    3.7112    2.2415   19.1988 C   0  0  0  0  0  0  0  0  0  0  0  0
    3.8150    1.7116   21.5546 C   0  0  0  0  0  0  0  0  0  0  0  0
    3.1860    2.3360   20.4830 C   0  0  0  0  0  0  0  0  0  0  0  0
    9.7322   -0.9172   27.1373 H   0  0  0  0  0  0  0  0  0  0  0  0
    6.6033    2.1728   25.2048 H   0  0  0  0  0  0  0  0  0  0  0  0
    8.1420    0.9797   23.8070 H   0  0  0  0  0  0  0  0  0  0  0  0
   10.8911   -0.9594   24.9457 H   0  0  0  0  0  0  0  0  0  0  0  0
    8.4987   -2.2211   24.5300 H   0  0  0  0  0  0  0  0  0  0  0  0
   11.1944   -0.1905   22.8466 H   0  0  0  0  0  0  0  0  0  0  0  0
   10.0884    0.9242   23.2949 H   0  0  0  0  0  0  0  0  0  0  0  0
    8.3212   -2.4434   22.3207 H   0  0  0  0  0  0  0  0  0  0  0  0
    9.9363   -2.5799   22.1222 H   0  0  0  0  0  0  0  0  0  0  0  0
    9.8322   -4.1604   24.2051 H   0  0  0  0  0  0  0  0  0  0  0  0
   11.1560   -3.2267   23.9989 H   0  0  0  0  0  0  0  0  0  0  0  0
   10.4274   -3.2995   25.4586 H   0  0  0  0  0  0  0  0  0  0  0  0
    7.0431   -1.3507   21.1769 H   0  0  0  0  0  0  0  0  0  0  0  0
    8.0128   -0.4119   18.2903 H   0  0  0  0  0  0  0  0  0  0  0  0
    5.4400    0.5399   22.0763 H   0  0  0  0  0  0  0  0  0  0  0  0
    4.9475    1.8717   16.9276 H   0  0  0  0  0  0  0  0  0  0  0  0
    3.2505    2.6943   18.4355 H   0  0  0  0  0  0  0  0  0  0  0  0
    3.4380    1.7784   22.4784 H   0  0  0  0  0  0  0  0  0  0  0  0
    2.3474    2.8584   20.6375 H   0  0  0  0  0  0  0  0  0  0  0  0
  1  2  1  0  0  0  0
  2  3  2  0  0  0  0
  2  4  1  0  0  0  0
  3  5  1  0  0  0  0
  3  6  1  0  0  0  0
  4  7  2  0  0  0  0
  6  8  2  0  0  0  0
  7  9  1  0  0  0  0
  9 10  1  0  0  0  0
  9 11  1  0  0  0  0
 10 12  1  0  0  0  0
 10 13  1  0  0  0  0
 11 14  1  0  0  0  0
 14 15  1  0  0  0  0
 15 16  2  0  0  0  0
 15 17  1  0  0  0  0
 17 18  1  0  0  0  0
 18 19  1  0  0  0  0
 18 20  2  0  0  0  0
 19 21  1  0  0  0  0
 19 22  2  0  0  0  0
 20 23  1  0  0  0  0
 21 24  1  0  0  0  0
 21 25  2  0  0  0  0
 22 26  1  0  0  0  0
 25 27  1  0  0  0  0
  7  8  1  0  0  0  0
 12 14  1  0  0  0  0
 23 24  2  0  0  0  0
 26 27  2  0  0  0  0
  4 28  1  0  0  0  0
  6 29  1  0  0  0  0
  8 30  1  0  0  0  0
  9 31  1  0  0  0  0
 10 32  1  0  0  0  0
 11 33  1  0  0  0  0
 11 34  1  0  0  0  0
 12 35  1  0  0  0  0
 12 36  1  0  0  0  0
 13 37  1  0  0  0  0
 13 38  1  0  0  0  0
 13 39  1  0  0  0  0
 17 40  1  0  0  0  0
 20 41  1  0  0  0  0
 22 42  1  0  0  0  0
 24 43  1  0  0  0  0
 25 44  1  0  0  0  0
 26 45  1  0  0  0  0
 27 46  1  0  0  0  0
M  END
> <BIOSOLVEIT.HYDE_ESTIMATED_AFFINITY_LOWER_BOUNDARY [nM]>
587.651449

> <BIOSOLVEIT.HYDE_ESTIMATED_AFFINITY_UPPER_BOUNDARY [nM]>
58386.645887

> <BIOSOLVEIT.HYDE_LIGAND_EFFICIENCY range: ++, +, 0, -, -->
-

> <BIOSOLVEIT.HYDE_LIGAND_LIPOPHILIC_EFFICIENCY range: ++, +, 0, -, -->
--

> <BIOSOLVEIT.INTER_CLASH range: red, yellow, green>
green

> <BIOSOLVEIT.INTRA_CLASH range: red, yellow, green>
green

> <BIOSOLVEIT.LOGP>
5.809

> <BIOSOLVEIT.MOLECULAR WEIGHT>
400.307

> <BIOSOLVEIT.MOLECULE_CHECKSUM>
LTI5Ljg2NTk7MS4xMDYxNQ==

> <BIOSOLVEIT.TORSION_QUALITY range: red, yellow, green, not rotatable>
green

> <BIOSOLVEIT.TPSA>
45.23

> <BIOSOLVEIT.SEESAR_FAVORITE>
favorite

> <smc_score>
0.563

> <QED_score>
0.59

> <distance>
0.508

> <SimilarityPheSA_1>
0.655

> <Smiles>
CC1CN(C(=O)Nc2cncc3ccccc23)CC1c1ccc(Cl)c(Cl)c1

> <Similarity_SkelSpheres>
0.876

> <Cluster No>
54.0

> <QueryID>
ALP-POS-6d04362c-1

> <SimilarityPheSA>
0.6553

> <Postera series>
3-aminopyridine-like

> <PDB_code>
Mpro-x12419

> <Approach>
DGM_focussed_RL

> <ID>
20210618_117

> <SimilarityPheSA_2>
0.823

> <OPTIBRIUM.logD>
5.26895

> <OPTIBRIUM.BBB category>
+

> <OPTIBRIUM.logP>
5.26895

> <OPTIBRIUM.P-gp category>
no

> <OPTIBRIUM.logS>
-0.826632

> <OPTIBRIUM.HIA category>
+

> <OPTIBRIUM.PPB90 category>
high

> <OPTIBRIUM.2D6 affinity category>
high

> <OPTIBRIUM.hERG pIC50>
5.6988

> <OPTIBRIUM.2C9 pKi>
5.92936

> <OPTIBRIUM.BBB log([brain]:[blood])>
-0.069391

> <OPTIBRIUM.logS @ pH7.4>
-0.826632

$$$$
Compound 702_1_1
haSeeSAR  07122111353D 1   1.00000     0.00000     0
SeeSAR 11.0.2 hazemaj
 37 40  0  0  0  0            999 V2000
   14.3890    0.2455   22.4647 F   0  0  0  0  0  0  0  0  0  0  0  0
   13.0635    0.1564   22.5258 C   0  0  0  0  0  0  0  0  0  0  0  0
   12.4401   -1.0737   22.3471 C   0  0  0  0  0  0  0  0  0  0  0  0
   12.3134    1.3017   22.7682 C   0  0  0  0  0  0  0  0  0  0  0  0
   13.1774   -2.1562   22.1172 F   0  0  0  0  0  0  0  0  0  0  0  0
   11.0552   -1.1815   22.4073 C   0  0  0  0  0  0  0  0  0  0  0  0
   10.9282    1.1940   22.8290 C   0  0  0  0  0  0  0  0  0  0  0  0
   10.3056   -0.0357   22.6498 C   0  0  0  0  0  0  0  0  0  0  0  0
   10.1946    2.2787   23.0610 F   0  0  0  0  0  0  0  0  0  0  0  0
    8.7903   -0.1375   22.7172 C   0  0  1  0  0  0  0  0  0  0  0  0
    8.1689    0.3838   21.4302 C   0  0  0  0  0  0  0  0  0  0  0  0
    8.3674   -1.5676   23.0055 C   0  0  0  0  0  0  0  0  0  0  0  0
    8.6636    1.3640   20.8939 O   0  0  0  0  0  0  0  0  0  0  0  0
    7.0505   -0.2513   20.8764 N   0  0  0  0  0  0  0  0  0  0  0  0
    6.8513   -1.6181   22.9378 C   0  0  0  0  0  0  0  0  0  0  0  0
    6.4500    0.2635   19.7206 C   0  0  0  0  0  0  0  0  0  0  0  0
    6.4706   -1.4662   21.4747 C   0  0  0  0  0  0  0  0  0  0  0  0
    5.2557    1.0236   19.8371 C   0  0  0  0  0  0  0  0  0  0  0  0
    7.0040    0.0394   18.4881 C   0  0  0  0  0  0  0  0  0  0  0  0
    4.5232    1.3792   20.8714 N   0  0  0  0  0  0  0  0  0  0  0  0
    4.6801    1.5198   18.7190 N   0  0  0  0  0  0  0  0  0  0  0  0
    6.3805    0.5639   17.3860 N   0  0  0  0  0  0  0  0  0  0  0  0
    3.4970    2.0864   20.4496 N   0  0  0  0  0  0  0  0  0  0  0  0
    5.2682    1.2726   17.5022 C   0  0  0  0  0  0  0  0  0  0  0  0
    3.5663    2.1889   19.1400 C   0  0  0  0  0  0  0  0  0  0  0  0
   12.7616    2.1864   22.8964 H   0  0  0  0  0  0  0  0  0  0  0  0
   10.6070   -2.0661   22.2785 H   0  0  0  0  0  0  0  0  0  0  0  0
    8.4733    0.4383   23.4707 H   0  0  0  0  0  0  0  0  0  0  0  0
    8.6777   -1.8381   23.9167 H   0  0  0  0  0  0  0  0  0  0  0  0
    8.7603   -2.1839   22.3230 H   0  0  0  0  0  0  0  0  0  0  0  0
    6.4578   -0.8719   23.4749 H   0  0  0  0  0  0  0  0  0  0  0  0
    6.5200   -2.4932   23.2904 H   0  0  0  0  0  0  0  0  0  0  0  0
    6.8017   -2.2639   20.9706 H   0  0  0  0  0  0  0  0  0  0  0  0
    5.4744   -1.4171   21.4038 H   0  0  0  0  0  0  0  0  0  0  0  0
    7.8442   -0.4948   18.3946 H   0  0  0  0  0  0  0  0  0  0  0  0
    4.8416    1.6405   16.6760 H   0  0  0  0  0  0  0  0  0  0  0  0
    2.9162    2.6729   18.5542 H   0  0  0  0  0  0  0  0  0  0  0  0
  1  2  1  0  0  0  0
  2  3  2  0  0  0  0
  2  4  1  0  0  0  0
  3  5  1  0  0  0  0
  3  6  1  0  0  0  0
  4  7  2  0  0  0  0
  6  8  2  0  0  0  0
  7  9  1  0  0  0  0
  8 10  1  0  0  0  0
 10 11  1  0  0  0  0
 10 12  1  0  0  0  0
 11 13  2  0  0  0  0
 11 14  1  0  0  0  0
 12 15  1  0  0  0  0
 14 16  1  0  0  0  0
 14 17  1  0  0  0  0
 16 18  1  0  0  0  0
 16 19  2  0  0  0  0
 18 20  2  0  0  0  0
 18 21  1  0  0  0  0
 19 22  1  0  0  0  0
 20 23  1  0  0  0  0
 21 24  1  0  0  0  0
 21 25  1  0  0  0  0
  7  8  1  0  0  0  0
 15 17  1  0  0  0  0
 22 24  2  0  0  0  0
 23 25  2  0  0  0  0
  4 26  1  0  0  0  0
  6 27  1  0  0  0  0
 10 28  1  0  0  0  0
 12 29  1  0  0  0  0
 12 30  1  0  0  0  0
 15 31  1  0  0  0  0
 15 32  1  0  0  0  0
 17 33  1  0  0  0  0
 17 34  1  0  0  0  0
 19 35  1  0  0  0  0
 24 36  1  0  0  0  0
 25 37  1  0  0  0  0
M  END
> <BIOSOLVEIT.HYDE_ESTIMATED_AFFINITY_LOWER_BOUNDARY [nM]>
623.310998

> <BIOSOLVEIT.HYDE_ESTIMATED_AFFINITY_UPPER_BOUNDARY [nM]>
61929.632934

> <BIOSOLVEIT.HYDE_LIGAND_EFFICIENCY range: ++, +, 0, -, -->
-

> <BIOSOLVEIT.HYDE_LIGAND_LIPOPHILIC_EFFICIENCY range: ++, +, 0, -, -->
-

> <BIOSOLVEIT.INTER_CLASH range: red, yellow, green>
green

> <BIOSOLVEIT.INTRA_CLASH range: red, yellow, green>
green

> <BIOSOLVEIT.LOGP>
2.4522

> <BIOSOLVEIT.MOLECULAR WEIGHT>
347.299

> <BIOSOLVEIT.MOLECULE_CHECKSUM>
LTI5LjcxOTk7MS4xODg4

> <BIOSOLVEIT.TORSION_QUALITY range: red, yellow, green, not rotatable>
green

> <BIOSOLVEIT.TPSA>
63.91

> <BIOSOLVEIT.SEESAR_FAVORITE>
favorite

> <smc_score>
0.625

> <QED_score>
0.668

> <distance>
0.647

> <SimilarityPheSA_1>
0.649

> <Smiles>
O=C1C(c2cc(F)c(F)cc2F)CCCN1c1cncn2cnnc12

> <Similarity_SkelSpheres>
0.541

> <Cluster No>
394.0

> <QueryID>
PET-UNK-c9c1e0d8-3

> <SimilarityPheSA>
0.649

> <Postera series>
3-aminopyridine-like

> <PDB_code>
Mpro-x12587

> <Approach>
DGM_focussed_RL

> <ID>
20210618_701

> <SimilarityPheSA_2>
0.816

> <OPTIBRIUM.logD>
2.47422

> <OPTIBRIUM.BBB category>
-

> <OPTIBRIUM.logP>
2.47422

> <OPTIBRIUM.P-gp category>
no

> <OPTIBRIUM.logS>
0.409277

> <OPTIBRIUM.HIA category>
+

> <OPTIBRIUM.PPB90 category>
low

> <OPTIBRIUM.2D6 affinity category>
medium

> <OPTIBRIUM.hERG pIC50>
6.02611

> <OPTIBRIUM.2C9 pKi>
5.26027

> <OPTIBRIUM.BBB log([brain]:[blood])>
-0.517941

> <OPTIBRIUM.logS @ pH7.4>
0.409277

$$$$
Compound 760_1_09
haSeeSAR  07122111353D 1   1.00000     0.00000     0
SeeSAR 11.0.2 hazemaj
 48 50  0  0  0  0            999 V2000
   13.2808    1.2386   23.1738 Cl  0  0  0  0  0  0  0  0  0  0  0  0
   11.8067    0.3286   22.7657 C   0  0  0  0  0  0  0  0  0  0  0  0
   11.9128   -0.9412   22.2079 C   0  0  0  0  0  0  0  0  0  0  0  0
   10.5573    0.8899   23.0062 C   0  0  0  0  0  0  0  0  0  0  0  0
   13.5179   -1.6491   21.9057 Cl  0  0  0  0  0  0  0  0  0  0  0  0
   10.7733   -1.6690   21.8807 C   0  0  0  0  0  0  0  0  0  0  0  0
    9.4208    0.1588   22.6781 C   0  0  0  0  0  0  0  0  0  0  0  0
    9.5213   -1.1110   22.1194 C   0  0  0  0  0  0  0  0  0  0  0  0
    8.0528    0.7685   22.9388 C   0  0  0  0  0  0  0  0  0  0  0  0
    7.5447    1.4343   21.6703 C   0  0  0  0  0  0  0  0  0  0  0  0
    8.3105    2.1047   20.9778 O   0  0  0  0  0  0  0  0  0  0  0  0
    6.2052    1.2851   21.2894 N   0  0  0  0  0  0  0  0  0  0  0  0
    5.4040    2.3509   20.6773 C   0  0  1  0  0  0  0  0  0  0  0  0
    5.4406    0.0434   21.4519 C   0  0  0  0  0  0  0  0  0  0  0  0
    4.4125    1.6384   19.7878 C   0  0  0  0  0  0  0  0  0  0  0  0
    4.6309    3.1059   21.7465 C   0  0  0  0  0  0  0  0  0  0  0  0
    5.4331   -0.5656   20.0638 C   0  0  0  0  0  0  0  0  0  0  0  0
    5.1891    0.5607   19.1647 N   0  0  0  0  0  0  0  0  0  0  0  0
    5.4137    3.1260   22.9978 N   0  0  0  0  0  0  0  0  0  0  0  0
    5.6662    0.6081   17.8493 C   0  0  0  0  0  0  0  0  0  0  0  0
    5.1923    2.3374   24.1175 C   0  0  0  0  0  0  0  0  0  0  0  0
    6.5235    4.0222   23.3226 C   0  0  0  0  0  0  0  0  0  0  0  0
    6.1789   -0.3906   17.3442 O   0  0  0  0  0  0  0  0  0  0  0  0
    5.5511    1.8926   17.0450 C   0  0  0  0  0  0  0  0  0  0  0  0
    4.2665    1.5580   24.2505 O   0  0  0  0  0  0  0  0  0  0  0  0
    6.1506    2.5324   25.0559 O   0  0  0  0  0  0  0  0  0  0  0  0
    7.1835    3.3259   24.4947 C   0  0  0  0  0  0  0  0  0  0  0  0
   10.4776    1.8023   23.4076 H   0  0  0  0  0  0  0  0  0  0  0  0
   10.8531   -2.5813   21.4791 H   0  0  0  0  0  0  0  0  0  0  0  0
    8.6936   -1.6230   21.8892 H   0  0  0  0  0  0  0  0  0  0  0  0
    8.1249    1.4500   23.6671 H   0  0  0  0  0  0  0  0  0  0  0  0
    7.4151    0.0501   23.2166 H   0  0  0  0  0  0  0  0  0  0  0  0
    5.9800    2.9720   20.1461 H   0  0  0  0  0  0  0  0  0  0  0  0
    4.5093    0.2370   21.7603 H   0  0  0  0  0  0  0  0  0  0  0  0
    5.8882   -0.5669   22.1055 H   0  0  0  0  0  0  0  0  0  0  0  0
    4.0497    2.2600   19.0934 H   0  0  0  0  0  0  0  0  0  0  0  0
    3.6581    1.2645   20.3273 H   0  0  0  0  0  0  0  0  0  0  0  0
    3.7552    2.6511   21.9085 H   0  0  0  0  0  0  0  0  0  0  0  0
    4.4679    4.0437   21.4403 H   0  0  0  0  0  0  0  0  0  0  0  0
    4.7051   -1.2464   19.9815 H   0  0  0  0  0  0  0  0  0  0  0  0
    6.3140   -0.9935   19.8618 H   0  0  0  0  0  0  0  0  0  0  0  0
    6.1906    4.9286   23.5828 H   0  0  0  0  0  0  0  0  0  0  0  0
    7.1551    4.1077   22.5520 H   0  0  0  0  0  0  0  0  0  0  0  0
    5.9381    1.7512   16.1338 H   0  0  0  0  0  0  0  0  0  0  0  0
    4.5881    2.1488   16.9620 H   0  0  0  0  0  0  0  0  0  0  0  0
    6.0515    2.6230   17.5098 H   0  0  0  0  0  0  0  0  0  0  0  0
    7.5194    3.9927   25.1598 H   0  0  0  0  0  0  0  0  0  0  0  0
    7.9422    2.7527   24.1850 H   0  0  0  0  0  0  0  0  0  0  0  0
  1  2  1  0  0  0  0
  2  3  2  0  0  0  0
  2  4  1  0  0  0  0
  3  5  1  0  0  0  0
  3  6  1  0  0  0  0
  4  7  2  0  0  0  0
  6  8  2  0  0  0  0
  7  9  1  0  0  0  0
  9 10  1  0  0  0  0
 10 11  2  0  0  0  0
 10 12  1  0  0  0  0
 12 13  1  0  0  0  0
 12 14  1  0  0  0  0
 13 15  1  0  0  0  0
 13 16  1  0  0  0  0
 14 17  1  0  0  0  0
 15 18  1  0  0  0  0
 16 19  1  0  0  0  0
 18 20  1  0  0  0  0
 19 21  1  0  0  0  0
 19 22  1  0  0  0  0
 20 23  2  0  0  0  0
 20 24  1  0  0  0  0
 21 25  2  0  0  0  0
 21 26  1  0  0  0  0
 22 27  1  0  0  0  0
  7  8  1  0  0  0  0
 17 18  1  0  0  0  0
 26 27  1  0  0  0  0
  4 28  1  0  0  0  0
  6 29  1  0  0  0  0
  8 30  1  0  0  0  0
  9 31  1  0  0  0  0
  9 32  1  0  0  0  0
 13 33  1  0  0  0  0
 14 34  1  0  0  0  0
 14 35  1  0  0  0  0
 15 36  1  0  0  0  0
 15 37  1  0  0  0  0
 16 38  1  0  0  0  0
 16 39  1  0  0  0  0
 17 40  1  0  0  0  0
 17 41  1  0  0  0  0
 22 42  1  0  0  0  0
 22 43  1  0  0  0  0
 24 44  1  0  0  0  0
 24 45  1  0  0  0  0
 24 46  1  0  0  0  0
 27 47  1  0  0  0  0
 27 48  1  0  0  0  0
M  END
> <BIOSOLVEIT.HYDE_ESTIMATED_AFFINITY_LOWER_BOUNDARY [nM]>
632.448900

> <BIOSOLVEIT.HYDE_ESTIMATED_AFFINITY_UPPER_BOUNDARY [nM]>
62837.537504

> <BIOSOLVEIT.HYDE_LIGAND_EFFICIENCY range: ++, +, 0, -, -->
-

> <BIOSOLVEIT.HYDE_LIGAND_LIPOPHILIC_EFFICIENCY range: ++, +, 0, -, -->
-

> <BIOSOLVEIT.INTER_CLASH range: red, yellow, green>
green

> <BIOSOLVEIT.INTRA_CLASH range: red, yellow, green>
green

> <BIOSOLVEIT.LOGP>
2.0474

> <BIOSOLVEIT.MOLECULAR WEIGHT>
414.287

> <BIOSOLVEIT.MOLECULE_CHECKSUM>
LTI5LjY4Mzg7MS4wOTk0

> <BIOSOLVEIT.TORSION_QUALITY range: red, yellow, green, not rotatable>
green

> <BIOSOLVEIT.TPSA>
70.16

> <BIOSOLVEIT.SEESAR_FAVORITE>
favorite

> <smc_score>
0.563

> <QED_score>
0.756

> <distance>
0.732

> <SimilarityPheSA_1>
0.63

> <Smiles>
CC(=O)N1CCN(C(=O)Cc2ccc(Cl)c(Cl)c2)C(CN2CCOC2=O)C1

> <Similarity_SkelSpheres>
0.618

> <Cluster No>
12.0

> <QueryID>
MAT-POS-bb423b95-1

> <SimilarityPheSA>
0.6302

> <Postera series>
3-aminopyridine-like

> <PDB_code>
Mpro-x11542

> <Approach>
DGM_exploratory_RL

> <ID>
20210628_30

> <SimilarityPheSA_2>
0.613

> <OPTIBRIUM.logD>
1.39605

> <OPTIBRIUM.BBB category>
-

> <OPTIBRIUM.logP>
1.39605

> <OPTIBRIUM.P-gp category>
yes

> <OPTIBRIUM.logS>
3.56248

> <OPTIBRIUM.HIA category>
+

> <OPTIBRIUM.PPB90 category>
low

> <OPTIBRIUM.2D6 affinity category>
medium

> <OPTIBRIUM.hERG pIC50>
4.67136

> <OPTIBRIUM.2C9 pKi>
4.76795

> <OPTIBRIUM.BBB log([brain]:[blood])>
-0.889797

> <OPTIBRIUM.logS @ pH7.4>
3.56248

$$$$
Compound 129_1_10
haSeeSAR  07122111353D 1   1.00000     0.00000     0
SeeSAR 11.0.2 hazemaj
 40 42  0  0  0  0            999 V2000
   12.7472    0.5838   25.1974 Cl  0  0  0  0  0  0  0  0  0  0  0  0
   12.0608   -0.1808   23.7438 C   0  0  0  0  0  0  0  0  0  0  0  0
   10.6889   -0.3451   23.6041 C   0  0  0  0  0  0  0  0  0  0  0  0
   12.9597   -0.6118   22.7729 C   0  0  0  0  0  0  0  0  0  0  0  0
    9.8230    0.0473   24.5729 O   0  0  0  0  0  0  0  0  0  0  0  0
   10.2489   -0.9491   22.4281 C   0  0  0  0  0  0  0  0  0  0  0  0
   12.4798   -1.2239   21.6159 C   0  0  0  0  0  0  0  0  0  0  0  0
    8.4236    0.1795   24.3493 C   0  0  0  0  0  0  0  0  0  0  0  0
   11.1122   -1.3973   21.4337 C   0  0  0  0  0  0  0  0  0  0  0  0
    8.7533   -1.1236   22.2119 C   0  0  1  0  0  0  0  0  0  0  0  0
   13.5862   -1.7874   20.3386 Cl  0  0  0  0  0  0  0  0  0  0  0  0
    7.9574   -0.9970   23.5026 C   0  0  1  0  0  0  0  0  0  0  0  0
    8.2069   -0.0873   21.2348 C   0  0  0  0  0  0  0  0  0  0  0  0
    8.0391   -2.2506   24.3631 C   0  0  0  0  0  0  0  0  0  0  0  0
    8.9505    0.7819   20.7798 O   0  0  0  0  0  0  0  0  0  0  0  0
    6.9340   -0.1226   20.8763 N   0  0  0  0  0  0  0  0  0  0  0  0
    6.5501    0.3352   19.6094 C   0  0  0  0  0  0  0  0  0  0  0  0
    5.4315    1.0500   19.3163 N   0  0  0  0  0  0  0  0  0  0  0  0
    7.2360    0.1378   18.4503 C   0  0  0  0  0  0  0  0  0  0  0  0
    5.4333    1.2891   17.9742 C   0  0  0  0  0  0  0  0  0  0  0  0
    4.4033    1.4878   20.2710 C   0  0  0  0  0  0  0  0  0  0  0  0
    6.5141    0.7405   17.4640 N   0  0  0  0  0  0  0  0  0  0  0  0
    4.8667    2.7565   20.9683 C   0  0  0  0  0  0  0  0  0  0  0  0
   13.9426   -0.4833   22.9041 H   0  0  0  0  0  0  0  0  0  0  0  0
    8.2381    1.0361   23.8680 H   0  0  0  0  0  0  0  0  0  0  0  0
    7.9404    0.1776   25.2248 H   0  0  0  0  0  0  0  0  0  0  0  0
   10.7575   -1.8341   20.6070 H   0  0  0  0  0  0  0  0  0  0  0  0
    8.5931   -2.0337   21.8298 H   0  0  0  0  0  0  0  0  0  0  0  0
    6.9983   -0.8466   23.2628 H   0  0  0  0  0  0  0  0  0  0  0  0
    7.7376   -3.0411   23.8300 H   0  0  0  0  0  0  0  0  0  0  0  0
    8.9837   -2.3897   24.6605 H   0  0  0  0  0  0  0  0  0  0  0  0
    7.4497   -2.1441   25.1639 H   0  0  0  0  0  0  0  0  0  0  0  0
    6.2457   -0.4762   21.5097 H   0  0  0  0  0  0  0  0  0  0  0  0
    8.1006   -0.3534   18.3435 H   0  0  0  0  0  0  0  0  0  0  0  0
    4.7349    1.7935   17.4665 H   0  0  0  0  0  0  0  0  0  0  0  0
    4.2522    0.7701   20.9507 H   0  0  0  0  0  0  0  0  0  0  0  0
    3.5499    1.6689   19.7821 H   0  0  0  0  0  0  0  0  0  0  0  0
    4.1671    3.0544   21.6178 H   0  0  0  0  0  0  0  0  0  0  0  0
    5.7201    2.5755   21.4571 H   0  0  0  0  0  0  0  0  0  0  0  0
    5.0177    3.4743   20.2885 H   0  0  0  0  0  0  0  0  0  0  0  0
  1  2  1  0  0  0  0
  2  3  2  0  0  0  0
  2  4  1  0  0  0  0
  3  5  1  0  0  0  0
  3  6  1  0  0  0  0
  4  7  2  0  0  0  0
  5  8  1  0  0  0  0
  6  9  2  0  0  0  0
  6 10  1  0  0  0  0
  7 11  1  0  0  0  0
  8 12  1  0  0  0  0
 10 13  1  0  0  0  0
 12 14  1  0  0  0  0
 13 15  2  0  0  0  0
 13 16  1  0  0  0  0
 16 17  1  0  0  0  0
 17 18  1  0  0  0  0
 17 19  2  0  0  0  0
 18 20  1  0  0  0  0
 18 21  1  0  0  0  0
 19 22  1  0  0  0  0
 21 23  1  0  0  0  0
  7  9  1  0  0  0  0
 10 12  1  0  0  0  0
 20 22  2  0  0  0  0
  4 24  1  0  0  0  0
  8 25  1  0  0  0  0
  8 26  1  0  0  0  0
  9 27  1  0  0  0  0
 10 28  1  0  0  0  0
 12 29  1  0  0  0  0
 14 30  1  0  0  0  0
 14 31  1  0  0  0  0
 14 32  1  0  0  0  0
 16 33  1  0  0  0  0
 19 34  1  0  0  0  0
 20 35  1  0  0  0  0
 21 36  1  0  0  0  0
 21 37  1  0  0  0  0
 23 38  1  0  0  0  0
 23 39  1  0  0  0  0
 23 40  1  0  0  0  0
M  END
> <BIOSOLVEIT.HYDE_ESTIMATED_AFFINITY_LOWER_BOUNDARY [nM]>
645.172143

> <BIOSOLVEIT.HYDE_ESTIMATED_AFFINITY_UPPER_BOUNDARY [nM]>
64101.666931

> <BIOSOLVEIT.HYDE_LIGAND_EFFICIENCY range: ++, +, 0, -, -->
0

> <BIOSOLVEIT.HYDE_LIGAND_LIPOPHILIC_EFFICIENCY range: ++, +, 0, -, -->
--

> <BIOSOLVEIT.INTER_CLASH range: red, yellow, green>
red

> <BIOSOLVEIT.INTRA_CLASH range: red, yellow, green>
green

> <BIOSOLVEIT.LOGP>
3.9606

> <BIOSOLVEIT.MOLECULAR WEIGHT>
354.235

> <BIOSOLVEIT.MOLECULE_CHECKSUM>
LTI5LjYzNDQ7MS4yODg0NQ==

> <BIOSOLVEIT.TORSION_QUALITY range: red, yellow, green, not rotatable>
green

> <BIOSOLVEIT.TPSA>
56.15

> <BIOSOLVEIT.SEESAR_FAVORITE>
favorite

> <smc_score>
1.0

> <QED_score>
0.908

> <distance>
0.569

> <SimilarityPheSA_1>
0.705

> <Smiles>
CCn1cncc1NC(=O)C1c2cc(Cl)cc(Cl)c2OCC1C

> <Similarity_SkelSpheres>
0.646

> <Cluster No>
61.0

> <QueryID>
JAG-UCB-a3ef7265-20

> <SimilarityPheSA>
0.7047

> <Postera series>
3-aminopyridine-like

> <PDB_code>
Mpro-x10324

> <Approach>
DGM_focussed_RL

> <ID>
20210618_128

> <SimilarityPheSA_2>
0.826

> <OPTIBRIUM.logD>
3.837

> <OPTIBRIUM.BBB category>
-

> <OPTIBRIUM.logP>
3.837

> <OPTIBRIUM.P-gp category>
no

> <OPTIBRIUM.logS>
1.37148

> <OPTIBRIUM.HIA category>
+

> <OPTIBRIUM.PPB90 category>
high

> <OPTIBRIUM.2D6 affinity category>
high

> <OPTIBRIUM.hERG pIC50>
4.74232

> <OPTIBRIUM.2C9 pKi>
5.24386

> <OPTIBRIUM.BBB log([brain]:[blood])>
-0.0576938

> <OPTIBRIUM.logS @ pH7.4>
1.37148

$$$$
Compound 129_1_02
haSeeSAR  07122111353D 1   1.00000     0.00000     0
SeeSAR 11.0.2 hazemaj
 41 43  0  0  0  0            999 V2000
   12.7110    0.5942   25.1828 Cl  0  0  0  0  0  0  0  0  0  0  0  0
   12.0338   -0.1754   23.7277 C   0  0  0  0  0  0  0  0  0  0  0  0
   10.6628   -0.3438   23.5818 C   0  0  0  0  0  0  0  0  0  0  0  0
   12.9384   -0.6059   22.7620 C   0  0  0  0  0  0  0  0  0  0  0  0
    9.7912    0.0484   24.5456 O   0  0  0  0  0  0  0  0  0  0  0  0
   10.2302   -0.9515   22.4049 C   0  0  0  0  0  0  0  0  0  0  0  0
   12.4657   -1.2218   21.6040 C   0  0  0  0  0  0  0  0  0  0  0  0
    8.3927    0.1761   24.3150 C   0  0  0  0  0  0  0  0  0  0  0  0
   11.0995   -1.3994   21.4156 C   0  0  0  0  0  0  0  0  0  0  0  0
    8.7362   -1.1305   22.1820 C   0  0  1  0  0  0  0  0  0  0  0  0
   13.5798   -1.7850   20.3332 Cl  0  0  0  0  0  0  0  0  0  0  0  0
    7.9338   -1.0034   23.4686 C   0  0  1  0  0  0  0  0  0  0  0  0
    8.1916   -0.0978   21.2000 C   0  0  0  0  0  0  0  0  0  0  0  0
    8.0148   -2.2548   24.3322 C   0  0  0  0  0  0  0  0  0  0  0  0
    8.9157    0.8147   20.8019 O   0  0  0  0  0  0  0  0  0  0  0  0
    6.9412   -0.1829   20.7762 N   0  0  0  0  0  0  0  0  0  0  0  0
    6.6005    0.2863   19.5011 C   0  0  0  0  0  0  0  0  0  0  0  0
    5.5192    1.0522   19.1813 N   0  0  0  0  0  0  0  0  0  0  0  0
    7.2986    0.0516   18.3547 C   0  0  0  0  0  0  0  0  0  0  0  0
    5.5491    1.2921   17.8410 C   0  0  0  0  0  0  0  0  0  0  0  0
    4.4947    1.5399   20.1173 C   0  0  0  0  0  0  0  0  0  0  0  0
    6.6108    0.6847   17.3652 N   0  3  0  0  0  0  0  0  0  0  0  0
    5.0379    2.7331   20.8865 C   0  0  0  0  0  0  0  0  0  0  0  0
   13.9204   -0.4744   22.8975 H   0  0  0  0  0  0  0  0  0  0  0  0
    8.2071    1.0313   23.8310 H   0  0  0  0  0  0  0  0  0  0  0  0
    7.9052    0.1749   25.1881 H   0  0  0  0  0  0  0  0  0  0  0  0
   10.7500   -1.8389   20.5882 H   0  0  0  0  0  0  0  0  0  0  0  0
    8.5803   -2.0419   21.8011 H   0  0  0  0  0  0  0  0  0  0  0  0
    6.9754   -0.8562   23.2239 H   0  0  0  0  0  0  0  0  0  0  0  0
    7.7181   -3.0473   23.7993 H   0  0  0  0  0  0  0  0  0  0  0  0
    8.9582   -2.3908   24.6344 H   0  0  0  0  0  0  0  0  0  0  0  0
    7.4213   -2.1483   25.1298 H   0  0  0  0  0  0  0  0  0  0  0  0
    6.2394   -0.5822   21.3661 H   0  0  0  0  0  0  0  0  0  0  0  0
    8.1423   -0.4768   18.2599 H   0  0  0  0  0  0  0  0  0  0  0  0
    4.8872    1.8294   17.3183 H   0  0  0  0  0  0  0  0  0  0  0  0
    4.2549    0.8110   20.7586 H   0  0  0  0  0  0  0  0  0  0  0  0
    3.6805    1.8155   19.6063 H   0  0  0  0  0  0  0  0  0  0  0  0
    4.3414    3.0646   21.5229 H   0  0  0  0  0  0  0  0  0  0  0  0
    5.8521    2.4575   21.3975 H   0  0  0  0  0  0  0  0  0  0  0  0
    5.2777    3.4620   20.2453 H   0  0  0  0  0  0  0  0  0  0  0  0
    6.8793    0.6865   16.4020 H   0  0  0  0  0  0  0  0  0  0  0  0
  1  2  1  0  0  0  0
  2  3  2  0  0  0  0
  2  4  1  0  0  0  0
  3  5  1  0  0  0  0
  3  6  1  0  0  0  0
  4  7  2  0  0  0  0
  5  8  1  0  0  0  0
  6  9  2  0  0  0  0
  6 10  1  0  0  0  0
  7 11  1  0  0  0  0
  8 12  1  0  0  0  0
 10 13  1  0  0  0  0
 12 14  1  0  0  0  0
 13 15  2  0  0  0  0
 13 16  1  0  0  0  0
 16 17  1  0  0  0  0
 17 18  1  0  0  0  0
 17 19  2  0  0  0  0
 18 20  1  0  0  0  0
 18 21  1  0  0  0  0
 19 22  1  0  0  0  0
 21 23  1  0  0  0  0
  7  9  1  0  0  0  0
 10 12  1  0  0  0  0
 20 22  2  0  0  0  0
  4 24  1  0  0  0  0
  8 25  1  0  0  0  0
  8 26  1  0  0  0  0
  9 27  1  0  0  0  0
 10 28  1  0  0  0  0
 12 29  1  0  0  0  0
 14 30  1  0  0  0  0
 14 31  1  0  0  0  0
 14 32  1  0  0  0  0
 16 33  1  0  0  0  0
 19 34  1  0  0  0  0
 20 35  1  0  0  0  0
 21 36  1  0  0  0  0
 21 37  1  0  0  0  0
 23 38  1  0  0  0  0
 23 39  1  0  0  0  0
 23 40  1  0  0  0  0
 22 41  1  0  0  0  0
M  CHG  1  22   1
M  END
> <BIOSOLVEIT.HYDE_ESTIMATED_AFFINITY_LOWER_BOUNDARY [nM]>
668.725488

> <BIOSOLVEIT.HYDE_ESTIMATED_AFFINITY_UPPER_BOUNDARY [nM]>
66441.831035

> <BIOSOLVEIT.HYDE_LIGAND_EFFICIENCY range: ++, +, 0, -, -->
0

> <BIOSOLVEIT.HYDE_LIGAND_LIPOPHILIC_EFFICIENCY range: ++, +, 0, -, -->
--

> <BIOSOLVEIT.INTER_CLASH range: red, yellow, green>
red

> <BIOSOLVEIT.INTRA_CLASH range: red, yellow, green>
green

> <BIOSOLVEIT.LOGP>
3.3797

> <BIOSOLVEIT.MOLECULAR WEIGHT>
355.243

> <BIOSOLVEIT.MOLECULE_CHECKSUM>
LTI5LjU0NTU7MS4yODQ1OQ==

> <BIOSOLVEIT.TORSION_QUALITY range: red, yellow, green, not rotatable>
green

> <BIOSOLVEIT.TPSA>
57.4

> <BIOSOLVEIT.SEESAR_FAVORITE>
favorite

> <smc_score>
1.0

> <QED_score>
0.908

> <distance>
0.569

> <SimilarityPheSA_1>
0.705

> <Smiles>
CCn1cncc1NC(=O)C1c2cc(Cl)cc(Cl)c2OCC1C

> <Similarity_SkelSpheres>
0.646

> <Cluster No>
61.0

> <QueryID>
JAG-UCB-a3ef7265-20

> <SimilarityPheSA>
0.7047

> <Postera series>
3-aminopyridine-like

> <PDB_code>
Mpro-x10324

> <Approach>
DGM_focussed_RL

> <ID>
20210618_128

> <SimilarityPheSA_2>
0.826

> <OPTIBRIUM.logD>
3.837

> <OPTIBRIUM.BBB category>
-

> <OPTIBRIUM.logP>
3.837

> <OPTIBRIUM.P-gp category>
no

> <OPTIBRIUM.logS>
1.37148

> <OPTIBRIUM.HIA category>
+

> <OPTIBRIUM.PPB90 category>
high

> <OPTIBRIUM.2D6 affinity category>
high

> <OPTIBRIUM.hERG pIC50>
4.74232

> <OPTIBRIUM.2C9 pKi>
5.24386

> <OPTIBRIUM.BBB log([brain]:[blood])>
-0.0576938

> <OPTIBRIUM.logS @ pH7.4>
1.37148

$$$$
Compound 1677_1_08
haSeeSAR  07122111353D 1   1.00000     0.00000     0
SeeSAR 11.0.2 hazemaj
 43 45  0  0  0  0            999 V2000
   13.8770    0.2343   23.4756 Cl  0  0  0  0  0  0  0  0  0  0  0  0
   12.1963   -0.1529   23.0376 C   0  0  0  0  0  0  0  0  0  0  0  0
   11.9326   -0.9484   21.9289 C   0  0  0  0  0  0  0  0  0  0  0  0
   11.1543    0.3475   23.8116 C   0  0  0  0  0  0  0  0  0  0  0  0
   13.2816   -1.5769   20.9527 Cl  0  0  0  0  0  0  0  0  0  0  0  0
   10.6247   -1.2587   21.5725 C   0  0  0  0  0  0  0  0  0  0  0  0
    9.8458    0.0375   23.4566 C   0  0  0  0  0  0  0  0  0  0  0  0
    9.5843   -0.7579   22.3470 C   0  0  0  0  0  0  0  0  0  0  0  0
    8.8416    0.5077   24.1886 F   0  0  0  0  0  0  0  0  0  0  0  0
    8.1479   -1.0851   21.9734 C   0  0  0  0  0  0  0  0  0  0  0  0
    7.3071    0.1043   22.1712 N   0  0  0  0  0  0  0  0  0  0  0  0
    7.5181    1.1913   21.4471 C   0  0  0  0  0  0  0  0  0  0  0  0
    8.4185    1.2068   20.6079 O   0  0  0  0  0  0  0  0  0  0  0  0
    6.6486    2.4213   21.6516 C   0  0  0  0  0  0  0  0  0  0  0  0
    5.4370    2.0468   22.3970 N   0  0  0  0  0  0  0  0  0  0  0  0
    5.3574    1.7882   23.6802 N   0  0  0  0  0  0  0  0  0  0  0  0
    4.1903    1.8968   21.8891 C   0  0  0  0  0  0  0  0  0  0  0  0
    4.1625    1.5014   23.9861 N   0  0  0  0  0  0  0  0  0  0  0  0
    3.4259    1.5551   22.8989 N   0  0  0  0  0  0  0  0  0  0  0  0
    3.7650    2.0839   20.4412 C   0  0  0  0  0  0  0  0  0  0  0  0
    4.8450    1.6286   19.5496 N   0  0  0  0  0  0  0  0  0  0  0  0
    5.0210    0.1690   19.6129 C   0  0  0  0  0  0  0  0  0  0  0  0
    4.5794    2.0034   18.1520 C   0  0  0  0  0  0  0  0  0  0  0  0
    6.1184   -0.2990   18.6688 C   0  0  0  0  0  0  0  0  0  0  0  0
    5.7034    1.5457   17.2340 C   0  0  0  0  0  0  0  0  0  0  0  0
    6.6794    0.7792   17.9305 O   0  0  0  0  0  0  0  0  0  0  0  0
   11.3429    0.9201   24.6093 H   0  0  0  0  0  0  0  0  0  0  0  0
   10.4362   -1.8310   20.7744 H   0  0  0  0  0  0  0  0  0  0  0  0
    7.8142   -1.8292   22.5521 H   0  0  0  0  0  0  0  0  0  0  0  0
    8.1086   -1.3655   21.0143 H   0  0  0  0  0  0  0  0  0  0  0  0
    6.5756    0.0918   22.8529 H   0  0  0  0  0  0  0  0  0  0  0  0
    6.3896    2.7981   20.7622 H   0  0  0  0  0  0  0  0  0  0  0  0
    7.1591    3.1081   22.1687 H   0  0  0  0  0  0  0  0  0  0  0  0
    3.5780    3.0515   20.2712 H   0  0  0  0  0  0  0  0  0  0  0  0
    2.9390    1.5487   20.2647 H   0  0  0  0  0  0  0  0  0  0  0  0
    4.1614   -0.2737   19.3576 H   0  0  0  0  0  0  0  0  0  0  0  0
    5.2642   -0.0891   20.5479 H   0  0  0  0  0  0  0  0  0  0  0  0
    4.4943    2.9979   18.0919 H   0  0  0  0  0  0  0  0  0  0  0  0
    3.7241    1.5772   17.8573 H   0  0  0  0  0  0  0  0  0  0  0  0
    5.7323   -0.9628   18.0284 H   0  0  0  0  0  0  0  0  0  0  0  0
    6.8416   -0.7346   19.2048 H   0  0  0  0  0  0  0  0  0  0  0  0
    6.1462    2.3506   16.8391 H   0  0  0  0  0  0  0  0  0  0  0  0
    5.3152    0.9859   16.5019 H   0  0  0  0  0  0  0  0  0  0  0  0
  1  2  1  0  0  0  0
  2  3  2  0  0  0  0
  2  4  1  0  0  0  0
  3  5  1  0  0  0  0
  3  6  1  0  0  0  0
  4  7  2  0  0  0  0
  6  8  2  0  0  0  0
  7  9  1  0  0  0  0
  8 10  1  0  0  0  0
 10 11  1  0  0  0  0
 11 12  1  0  0  0  0
 12 13  2  0  0  0  0
 12 14  1  0  0  0  0
 14 15  1  0  0  0  0
 15 16  1  0  0  0  0
 15 17  1  0  0  0  0
 16 18  2  0  0  0  0
 17 19  2  0  0  0  0
 17 20  1  0  0  0  0
 20 21  1  0  0  0  0
 21 22  1  0  0  0  0
 21 23  1  0  0  0  0
 22 24  1  0  0  0  0
 23 25  1  0  0  0  0
 24 26  1  0  0  0  0
  7  8  1  0  0  0  0
 18 19  1  0  0  0  0
 25 26  1  0  0  0  0
  4 27  1  0  0  0  0
  6 28  1  0  0  0  0
 10 29  1  0  0  0  0
 10 30  1  0  0  0  0
 11 31  1  0  0  0  0
 14 32  1  0  0  0  0
 14 33  1  0  0  0  0
 20 34  1  0  0  0  0
 20 35  1  0  0  0  0
 22 36  1  0  0  0  0
 22 37  1  0  0  0  0
 23 38  1  0  0  0  0
 23 39  1  0  0  0  0
 24 40  1  0  0  0  0
 24 41  1  0  0  0  0
 25 42  1  0  0  0  0
 25 43  1  0  0  0  0
M  END
> <BIOSOLVEIT.HYDE_ESTIMATED_AFFINITY_LOWER_BOUNDARY [nM]>
688.272751

> <BIOSOLVEIT.HYDE_ESTIMATED_AFFINITY_UPPER_BOUNDARY [nM]>
68383.967214

> <BIOSOLVEIT.HYDE_LIGAND_EFFICIENCY range: ++, +, 0, -, -->
-

> <BIOSOLVEIT.HYDE_LIGAND_LIPOPHILIC_EFFICIENCY range: ++, +, 0, -, -->
0

> <BIOSOLVEIT.INTER_CLASH range: red, yellow, green>
yellow

> <BIOSOLVEIT.INTRA_CLASH range: red, yellow, green>
red

> <BIOSOLVEIT.LOGP>
1.2676

> <BIOSOLVEIT.MOLECULAR WEIGHT>
403.243

> <BIOSOLVEIT.MOLECULE_CHECKSUM>
LTI5LjQ3NDE7MS4xMzM2Mg==

> <BIOSOLVEIT.TORSION_QUALITY range: red, yellow, green, not rotatable>
green

> <BIOSOLVEIT.TPSA>
85.17

> <BIOSOLVEIT.SEESAR_FAVORITE>
favorite

> <smc_score>
0.938

> <QED_score>
0.732

> <distance>
0.706

> <SimilarityPheSA_1>
0.649

> <Smiles>
O=C(Cn1nnnc1CN1CCOCC1)NCc1cc(Cl)c(Cl)cc1F

> <Similarity_SkelSpheres>
0.574

> <Cluster No>
451.0

> <QueryID>
JAN-GHE-5a013bed-2

> <SimilarityPheSA>
0.6491

> <Postera series>
3-aminopyridine-like

> <PDB_code>
Mpro-x10466

> <Approach>
DGM_exploratory_RL

> <ID>
20210628_947

> <SimilarityPheSA_2>
0.664

> <OPTIBRIUM.logD>
-0.269118

> <OPTIBRIUM.BBB category>
-

> <OPTIBRIUM.logP>
1.36368

> <OPTIBRIUM.P-gp category>
yes

> <OPTIBRIUM.logS>
3.43185

> <OPTIBRIUM.HIA category>
-

> <OPTIBRIUM.PPB90 category>
low

> <OPTIBRIUM.2D6 affinity category>
low

> <OPTIBRIUM.hERG pIC50>
5.13977

> <OPTIBRIUM.2C9 pKi>
4.68636

> <OPTIBRIUM.BBB log([brain]:[blood])>
-0.437916

> <OPTIBRIUM.logS @ pH7.4>
3.23591

$$$$
Compound 118_1_06
haSeeSAR  07122111353D 1   1.00000     0.00000     0
SeeSAR 11.0.2 hazemaj
 46 49  0  0  0  0            999 V2000
    5.4938    1.8036   24.9923 Cl  0  0  0  0  0  0  0  0  0  0  0  0
    7.0209    1.1766   25.6593 C   0  0  0  0  0  0  0  0  0  0  0  0
    7.3305    1.3814   26.9995 C   0  0  0  0  0  0  0  0  0  0  0  0
    7.8942    0.4821   24.8301 C   0  0  0  0  0  0  0  0  0  0  0  0
    6.1955    2.2746   28.0397 Cl  0  0  0  0  0  0  0  0  0  0  0  0
    8.5202    0.8943   27.5315 C   0  0  0  0  0  0  0  0  0  0  0  0
    9.0819   -0.0021   25.3668 C   0  0  0  0  0  0  0  0  0  0  0  0
    9.3983    0.1997   26.7061 C   0  0  0  0  0  0  0  0  0  0  0  0
   10.0481   -0.7638   24.4753 C   0  0  1  0  0  0  0  0  0  0  0  0
    9.4057   -2.0898   24.1065 C   0  0  1  0  0  0  0  0  0  0  0  0
   10.2805   -0.0236   23.1747 C   0  0  0  0  0  0  0  0  0  0  0  0
    9.2205   -2.0414   22.6062 C   0  0  0  0  0  0  0  0  0  0  0  0
   10.2898   -3.2632   24.4977 C   0  0  0  0  0  0  0  0  0  0  0  0
    9.3055   -0.6205   22.2673 N   0  0  0  0  0  0  0  0  0  0  0  0
    8.5956    0.0369   21.2572 C   0  0  0  0  0  0  0  0  0  0  0  0
    9.0179    1.0612   20.7961 O   0  0  0  0  0  0  0  0  0  0  0  0
    7.4180   -0.4884   20.7942 N   0  0  0  0  0  0  0  0  0  0  0  0
    6.7068    0.1703   19.7823 C   0  0  0  0  0  0  0  0  0  0  0  0
    5.5519    0.9082   20.0342 C   0  0  0  0  0  0  0  0  0  0  0  0
    7.1788    0.0799   18.4771 C   0  0  0  0  0  0  0  0  0  0  0  0
    4.9040    1.5324   18.9725 C   0  0  0  0  0  0  0  0  0  0  0  0
    5.0225    1.0417   21.3150 C   0  0  0  0  0  0  0  0  0  0  0  0
    6.5328    0.6922   17.4732 N   0  0  0  0  0  0  0  0  0  0  0  0
    5.4186    1.4095   17.6852 C   0  0  0  0  0  0  0  0  0  0  0  0
    3.7488    2.2754   19.1953 C   0  0  0  0  0  0  0  0  0  0  0  0
    3.8690    1.7794   21.5575 C   0  0  0  0  0  0  0  0  0  0  0  0
    3.2375    2.3958   20.4828 C   0  0  0  0  0  0  0  0  0  0  0  0
    7.6725    0.3337   23.8663 H   0  0  0  0  0  0  0  0  0  0  0  0
    8.7414    1.0416   28.4954 H   0  0  0  0  0  0  0  0  0  0  0  0
   10.2572   -0.1546   27.0756 H   0  0  0  0  0  0  0  0  0  0  0  0
   10.9150   -0.9160   24.9500 H   0  0  0  0  0  0  0  0  0  0  0  0
    8.5159   -2.1716   24.5553 H   0  0  0  0  0  0  0  0  0  0  0  0
   11.2129   -0.1673   22.8429 H   0  0  0  0  0  0  0  0  0  0  0  0
   10.1133    0.9560   23.2856 H   0  0  0  0  0  0  0  0  0  0  0  0
    8.3284   -2.4127   22.3488 H   0  0  0  0  0  0  0  0  0  0  0  0
    9.9421   -2.5578   22.1450 H   0  0  0  0  0  0  0  0  0  0  0  0
    9.8401   -4.1191   24.2424 H   0  0  0  0  0  0  0  0  0  0  0  0
   11.1669   -3.1928   24.0225 H   0  0  0  0  0  0  0  0  0  0  0  0
   10.4440   -3.2496   25.4857 H   0  0  0  0  0  0  0  0  0  0  0  0
    7.0660   -1.3419   21.1784 H   0  0  0  0  0  0  0  0  0  0  0  0
    8.0074   -0.4462   18.2853 H   0  0  0  0  0  0  0  0  0  0  0  0
    5.4842    0.5949   22.0811 H   0  0  0  0  0  0  0  0  0  0  0  0
    4.9579    1.8558   16.9180 H   0  0  0  0  0  0  0  0  0  0  0  0
    3.2864    2.7226   18.4297 H   0  0  0  0  0  0  0  0  0  0  0  0
    3.5020    1.8648   22.4838 H   0  0  0  0  0  0  0  0  0  0  0  0
    2.4072    2.9310   20.6375 H   0  0  0  0  0  0  0  0  0  0  0  0
  1  2  1  0  0  0  0
  2  3  2  0  0  0  0
  2  4  1  0  0  0  0
  3  5  1  0  0  0  0
  3  6  1  0  0  0  0
  4  7  2  0  0  0  0
  6  8  2  0  0  0  0
  7  9  1  0  0  0  0
  9 10  1  0  0  0  0
  9 11  1  0  0  0  0
 10 12  1  0  0  0  0
 10 13  1  0  0  0  0
 11 14  1  0  0  0  0
 14 15  1  0  0  0  0
 15 16  2  0  0  0  0
 15 17  1  0  0  0  0
 17 18  1  0  0  0  0
 18 19  1  0  0  0  0
 18 20  2  0  0  0  0
 19 21  1  0  0  0  0
 19 22  2  0  0  0  0
 20 23  1  0  0  0  0
 21 24  1  0  0  0  0
 21 25  2  0  0  0  0
 22 26  1  0  0  0  0
 25 27  1  0  0  0  0
  7  8  1  0  0  0  0
 12 14  1  0  0  0  0
 23 24  2  0  0  0  0
 26 27  2  0  0  0  0
  4 28  1  0  0  0  0
  6 29  1  0  0  0  0
  8 30  1  0  0  0  0
  9 31  1  0  0  0  0
 10 32  1  0  0  0  0
 11 33  1  0  0  0  0
 11 34  1  0  0  0  0
 12 35  1  0  0  0  0
 12 36  1  0  0  0  0
 13 37  1  0  0  0  0
 13 38  1  0  0  0  0
 13 39  1  0  0  0  0
 17 40  1  0  0  0  0
 20 41  1  0  0  0  0
 22 42  1  0  0  0  0
 24 43  1  0  0  0  0
 25 44  1  0  0  0  0
 26 45  1  0  0  0  0
 27 46  1  0  0  0  0
M  END
> <BIOSOLVEIT.HYDE_ESTIMATED_AFFINITY_LOWER_BOUNDARY [nM]>
689.766338

> <BIOSOLVEIT.HYDE_ESTIMATED_AFFINITY_UPPER_BOUNDARY [nM]>
68532.363889

> <BIOSOLVEIT.HYDE_LIGAND_EFFICIENCY range: ++, +, 0, -, -->
-

> <BIOSOLVEIT.HYDE_LIGAND_LIPOPHILIC_EFFICIENCY range: ++, +, 0, -, -->
--

> <BIOSOLVEIT.INTER_CLASH range: red, yellow, green>
green

> <BIOSOLVEIT.INTRA_CLASH range: red, yellow, green>
green

> <BIOSOLVEIT.LOGP>
5.809

> <BIOSOLVEIT.MOLECULAR WEIGHT>
400.307

> <BIOSOLVEIT.MOLECULE_CHECKSUM>
LTI5LjQ2ODc7MS4wOTE0NA==

> <BIOSOLVEIT.TORSION_QUALITY range: red, yellow, green, not rotatable>
yellow

> <BIOSOLVEIT.TPSA>
45.23

> <BIOSOLVEIT.SEESAR_FAVORITE>
favorite

> <smc_score>
0.563

> <QED_score>
0.59

> <distance>
0.508

> <SimilarityPheSA_1>
0.655

> <Smiles>
CC1CN(C(=O)Nc2cncc3ccccc23)CC1c1ccc(Cl)c(Cl)c1

> <Similarity_SkelSpheres>
0.876

> <Cluster No>
54.0

> <QueryID>
ALP-POS-6d04362c-1

> <SimilarityPheSA>
0.6553

> <Postera series>
3-aminopyridine-like

> <PDB_code>
Mpro-x12419

> <Approach>
DGM_focussed_RL

> <ID>
20210618_117

> <SimilarityPheSA_2>
0.823

> <OPTIBRIUM.logD>
5.26895

> <OPTIBRIUM.BBB category>
+

> <OPTIBRIUM.logP>
5.26895

> <OPTIBRIUM.P-gp category>
no

> <OPTIBRIUM.logS>
-0.826632

> <OPTIBRIUM.HIA category>
+

> <OPTIBRIUM.PPB90 category>
high

> <OPTIBRIUM.2D6 affinity category>
high

> <OPTIBRIUM.hERG pIC50>
5.6988

> <OPTIBRIUM.2C9 pKi>
5.92936

> <OPTIBRIUM.BBB log([brain]:[blood])>
-0.069391

> <OPTIBRIUM.logS @ pH7.4>
-0.826632

$$$$
Compound 555_1_10
haSeeSAR  07122111353D 1   1.00000     0.00000     0
SeeSAR 11.0.2 hazemaj
 53 57  0  0  0  0            999 V2000
    9.2297    1.6269   31.9950 Cl  0  0  0  0  0  0  0  0  0  0  0  0
    8.7798    1.6698   30.2747 C   0  0  0  0  0  0  0  0  0  0  0  0
    7.8147    2.5645   29.8368 C   0  0  0  0  0  0  0  0  0  0  0  0
    9.3853    0.8078   29.3705 C   0  0  0  0  0  0  0  0  0  0  0  0
    7.0285    3.6661   30.9907 Cl  0  0  0  0  0  0  0  0  0  0  0  0
    7.4411    2.6321   28.5023 C   0  0  0  0  0  0  0  0  0  0  0  0
    8.9985    0.8726   28.0354 C   0  0  0  0  0  0  0  0  0  0  0  0
    8.0442    1.7839   27.5827 C   0  0  0  0  0  0  0  0  0  0  0  0
    9.6519   -0.1068   27.0754 C   0  0  0  0  0  0  0  0  0  0  0  0
    7.6638    1.8806   26.1134 C   0  0  0  0  0  0  0  0  0  0  0  0
    9.5209    0.3604   25.6357 C   0  0  2  0  0  0  0  0  0  0  0  0
    8.0491    0.6151   25.3651 C   0  0  0  0  0  0  0  0  0  0  0  0
   10.0468   -0.7483   24.7374 C   0  0  0  0  0  0  0  0  0  0  0  0
   10.2605   -0.2048   23.3340 C   0  0  0  0  0  0  0  0  0  0  0  0
    9.0534   -0.4416   22.5275 N   0  0  0  0  0  0  0  0  0  0  0  0
    8.6254    0.3272   21.4487 C   0  0  0  0  0  0  0  0  0  0  0  0
    8.1029   -1.5210   22.7937 C   0  0  0  0  0  0  0  0  0  0  0  0
    9.1924    1.3286   21.0519 O   0  0  0  0  0  0  0  0  0  0  0  0
    7.4660   -0.2377   20.9055 N   0  0  0  0  0  0  0  0  0  0  0  0
    7.1489   -1.4846   21.6130 C   0  0  0  0  0  0  0  0  0  0  0  0
    6.7280    0.2965   19.8449 C   0  0  0  0  0  0  0  0  0  0  0  0
    5.5390    0.9977   20.0351 C   0  0  0  0  0  0  0  0  0  0  0  0
    7.2063    0.1173   18.5512 C   0  0  0  0  0  0  0  0  0  0  0  0
    4.8643    1.4973   18.9255 C   0  0  0  0  0  0  0  0  0  0  0  0
    5.0013    1.2148   21.3009 C   0  0  0  0  0  0  0  0  0  0  0  0
    6.5339    0.6103   17.5000 N   0  0  0  0  0  0  0  0  0  0  0  0
    5.3865    1.2895   17.6522 C   0  0  0  0  0  0  0  0  0  0  0  0
    3.6746    2.2011   19.0863 C   0  0  0  0  0  0  0  0  0  0  0  0
    3.8137    1.9150   21.4822 C   0  0  0  0  0  0  0  0  0  0  0  0
    3.1557    2.4066   20.3600 C   0  0  0  0  0  0  0  0  0  0  0  0
   10.0820    0.1564   29.6712 H   0  0  0  0  0  0  0  0  0  0  0  0
    6.7445    3.2852   28.2055 H   0  0  0  0  0  0  0  0  0  0  0  0
    9.2102   -0.9990   27.1698 H   0  0  0  0  0  0  0  0  0  0  0  0
   10.6218   -0.1891   27.3042 H   0  0  0  0  0  0  0  0  0  0  0  0
    8.1380    2.6598   25.7036 H   0  0  0  0  0  0  0  0  0  0  0  0
    6.6756    2.0155   26.0400 H   0  0  0  0  0  0  0  0  0  0  0  0
   10.0481    1.1983   25.4950 H   0  0  0  0  0  0  0  0  0  0  0  0
    7.8979    0.7382   24.3843 H   0  0  0  0  0  0  0  0  0  0  0  0
    7.5027   -0.1558   25.6925 H   0  0  0  0  0  0  0  0  0  0  0  0
    9.3837   -1.4961   24.7078 H   0  0  0  0  0  0  0  0  0  0  0  0
   10.9153   -1.0869   25.0994 H   0  0  0  0  0  0  0  0  0  0  0  0
   11.0395   -0.6685   22.9120 H   0  0  0  0  0  0  0  0  0  0  0  0
   10.4426    0.7773   23.3809 H   0  0  0  0  0  0  0  0  0  0  0  0
    7.6127   -1.3575   23.6498 H   0  0  0  0  0  0  0  0  0  0  0  0
    8.5729   -2.4023   22.8417 H   0  0  0  0  0  0  0  0  0  0  0  0
    6.1999   -1.4780   21.9281 H   0  0  0  0  0  0  0  0  0  0  0  0
    7.2968   -2.2740   21.0172 H   0  0  0  0  0  0  0  0  0  0  0  0
    8.0592   -0.3834   18.4032 H   0  0  0  0  0  0  0  0  0  0  0  0
    5.4822    0.8574   22.1016 H   0  0  0  0  0  0  0  0  0  0  0  0
    4.9068    1.6463   16.8507 H   0  0  0  0  0  0  0  0  0  0  0  0
    3.1931    2.5589   18.2863 H   0  0  0  0  0  0  0  0  0  0  0  0
    3.4412    2.0617   22.3985 H   0  0  0  0  0  0  0  0  0  0  0  0
    2.3006    2.9133   20.4701 H   0  0  0  0  0  0  0  0  0  0  0  0
  1  2  1  0  0  0  0
  2  3  2  0  0  0  0
  2  4  1  0  0  0  0
  3  5  1  0  0  0  0
  3  6  1  0  0  0  0
  4  7  2  0  0  0  0
  6  8  2  0  0  0  0
  7  9  1  0  0  0  0
  8 10  1  0  0  0  0
  9 11  1  0  0  0  0
 10 12  1  0  0  0  0
 11 13  1  0  0  0  0
 13 14  1  0  0  0  0
 14 15  1  0  0  0  0
 15 16  1  0  0  0  0
 15 17  1  0  0  0  0
 16 18  2  0  0  0  0
 16 19  1  0  0  0  0
 17 20  1  0  0  0  0
 19 21  1  0  0  0  0
 21 22  1  0  0  0  0
 21 23  2  0  0  0  0
 22 24  1  0  0  0  0
 22 25  2  0  0  0  0
 23 26  1  0  0  0  0
 24 27  1  0  0  0  0
 24 28  2  0  0  0  0
 25 29  1  0  0  0  0
 28 30  1  0  0  0  0
  7  8  1  0  0  0  0
 11 12  1  0  0  0  0
 19 20  1  0  0  0  0
 26 27  2  0  0  0  0
 29 30  2  0  0  0  0
  4 31  1  0  0  0  0
  6 32  1  0  0  0  0
  9 33  1  0  0  0  0
  9 34  1  0  0  0  0
 10 35  1  0  0  0  0
 10 36  1  0  0  0  0
 11 37  1  0  0  0  0
 12 38  1  0  0  0  0
 12 39  1  0  0  0  0
 13 40  1  0  0  0  0
 13 41  1  0  0  0  0
 14 42  1  0  0  0  0
 14 43  1  0  0  0  0
 17 44  1  0  0  0  0
 17 45  1  0  0  0  0
 20 46  1  0  0  0  0
 20 47  1  0  0  0  0
 23 48  1  0  0  0  0
 25 49  1  0  0  0  0
 27 50  1  0  0  0  0
 28 51  1  0  0  0  0
 29 52  1  0  0  0  0
 30 53  1  0  0  0  0
M  END
> <BIOSOLVEIT.HYDE_ESTIMATED_AFFINITY_LOWER_BOUNDARY [nM]>
700.189705

> <BIOSOLVEIT.HYDE_ESTIMATED_AFFINITY_UPPER_BOUNDARY [nM]>
69567.987009

> <BIOSOLVEIT.HYDE_LIGAND_EFFICIENCY range: ++, +, 0, -, -->
-

> <BIOSOLVEIT.HYDE_LIGAND_LIPOPHILIC_EFFICIENCY range: ++, +, 0, -, -->
--

> <BIOSOLVEIT.INTER_CLASH range: red, yellow, green>
green

> <BIOSOLVEIT.INTRA_CLASH range: red, yellow, green>
green

> <BIOSOLVEIT.LOGP>
5.9788

> <BIOSOLVEIT.MOLECULAR WEIGHT>
440.372

> <BIOSOLVEIT.MOLECULE_CHECKSUM>
LTI5LjQzMTY7MC45ODEwNTI=

> <BIOSOLVEIT.TORSION_QUALITY range: red, yellow, green, not rotatable>
red

> <BIOSOLVEIT.TPSA>
36.44

> <BIOSOLVEIT.SEESAR_FAVORITE>
favorite

> <smc_score>
0.688

> <QED_score>
0.501

> <distance>
0.529

> <SimilarityPheSA_1>
0.686

> <Smiles>
O=C1N(CCC2CCc3cc(Cl)c(Cl)cc3C2)CCN1c1cncc2ccccc12

> <Similarity_SkelSpheres>
0.763

> <Cluster No>
297.0

> <QueryID>
PET-UNK-c9c1e0d8-3

> <SimilarityPheSA>
0.6862

> <Postera series>
3-aminopyridine-like

> <PDB_code>
Mpro-x12587

> <Approach>
DGM_focussed_RL

> <ID>
20210618_554

> <SimilarityPheSA_2>
0.798

> <OPTIBRIUM.logD>
5.63807

> <OPTIBRIUM.BBB category>
+

> <OPTIBRIUM.logP>
5.63807

> <OPTIBRIUM.P-gp category>
yes

> <OPTIBRIUM.logS>
-0.611183

> <OPTIBRIUM.HIA category>
+

> <OPTIBRIUM.PPB90 category>
high

> <OPTIBRIUM.2D6 affinity category>
medium

> <OPTIBRIUM.hERG pIC50>
6.18332

> <OPTIBRIUM.2C9 pKi>
5.70681

> <OPTIBRIUM.BBB log([brain]:[blood])>
0.0866107

> <OPTIBRIUM.logS @ pH7.4>
-0.611183

$$$$
Compound 1677_1_05
haSeeSAR  07122111353D 1   1.00000     0.00000     0
SeeSAR 11.0.2 hazemaj
 43 45  0  0  0  0            999 V2000
   13.8777    0.2339   23.4736 Cl  0  0  0  0  0  0  0  0  0  0  0  0
   12.1967   -0.1535   23.0365 C   0  0  0  0  0  0  0  0  0  0  0  0
   11.9326   -0.9493   21.9282 C   0  0  0  0  0  0  0  0  0  0  0  0
   11.1552    0.3471   23.8108 C   0  0  0  0  0  0  0  0  0  0  0  0
   13.2812   -1.5782   20.9515 Cl  0  0  0  0  0  0  0  0  0  0  0  0
   10.6246   -1.2598   21.5724 C   0  0  0  0  0  0  0  0  0  0  0  0
    9.8465    0.0369   23.4566 C   0  0  0  0  0  0  0  0  0  0  0  0
    9.5845   -0.7588   22.3473 C   0  0  0  0  0  0  0  0  0  0  0  0
    8.8427    0.5074   24.1889 F   0  0  0  0  0  0  0  0  0  0  0  0
    8.1480   -1.0861   21.9745 C   0  0  0  0  0  0  0  0  0  0  0  0
    7.3072    0.1034   22.1722 N   0  0  0  0  0  0  0  0  0  0  0  0
    7.5181    1.1902   21.4477 C   0  0  0  0  0  0  0  0  0  0  0  0
    8.4183    1.2053   20.6083 O   0  0  0  0  0  0  0  0  0  0  0  0
    6.6488    2.4201   21.6521 C   0  0  0  0  0  0  0  0  0  0  0  0
    5.4377    2.0462   22.3985 N   0  0  0  0  0  0  0  0  0  0  0  0
    5.3585    1.7900   23.6823 N   0  0  0  0  0  0  0  0  0  0  0  0
    4.1910    1.8942   21.8912 C   0  0  0  0  0  0  0  0  0  0  0  0
    4.1641    1.5029   23.9890 N   0  0  0  0  0  0  0  0  0  0  0  0
    3.4271    1.5539   22.9019 N   0  0  0  0  0  0  0  0  0  0  0  0
    3.7651    2.0782   20.4431 C   0  0  0  0  0  0  0  0  0  0  0  0
    4.8455    1.6229   19.5521 N   0  0  0  0  0  0  0  0  0  0  0  0
    5.0221    0.1634   19.6159 C   0  0  0  0  0  0  0  0  0  0  0  0
    4.5805    1.9970   18.1543 C   0  0  0  0  0  0  0  0  0  0  0  0
    6.1199   -0.3047   18.6726 C   0  0  0  0  0  0  0  0  0  0  0  0
    5.7051    1.5393   17.2369 C   0  0  0  0  0  0  0  0  0  0  0  0
    6.6809    0.7735   17.9341 O   0  0  0  0  0  0  0  0  0  0  0  0
   11.3441    0.9200   24.6083 H   0  0  0  0  0  0  0  0  0  0  0  0
   10.4357   -1.8323   20.7747 H   0  0  0  0  0  0  0  0  0  0  0  0
    7.8145   -1.8300   22.5538 H   0  0  0  0  0  0  0  0  0  0  0  0
    8.1082   -1.3669   21.0156 H   0  0  0  0  0  0  0  0  0  0  0  0
    6.5759    0.0911   22.8541 H   0  0  0  0  0  0  0  0  0  0  0  0
    6.3892    2.7964   20.7627 H   0  0  0  0  0  0  0  0  0  0  0  0
    7.1596    3.1074   22.1685 H   0  0  0  0  0  0  0  0  0  0  0  0
    3.5766    3.0451   20.2714 H   0  0  0  0  0  0  0  0  0  0  0  0
    2.9399    1.5415   20.2676 H   0  0  0  0  0  0  0  0  0  0  0  0
    4.1627   -0.2797   19.3605 H   0  0  0  0  0  0  0  0  0  0  0  0
    5.2649   -0.0944   20.5511 H   0  0  0  0  0  0  0  0  0  0  0  0
    4.4951    2.9915   18.0939 H   0  0  0  0  0  0  0  0  0  0  0  0
    3.7255    1.5705   17.8593 H   0  0  0  0  0  0  0  0  0  0  0  0
    5.7344   -0.9689   18.0322 H   0  0  0  0  0  0  0  0  0  0  0  0
    6.8432   -0.7398   19.2089 H   0  0  0  0  0  0  0  0  0  0  0  0
    6.1478    2.3443   16.8419 H   0  0  0  0  0  0  0  0  0  0  0  0
    5.3173    0.9793   16.5049 H   0  0  0  0  0  0  0  0  0  0  0  0
  1  2  1  0  0  0  0
  2  3  2  0  0  0  0
  2  4  1  0  0  0  0
  3  5  1  0  0  0  0
  3  6  1  0  0  0  0
  4  7  2  0  0  0  0
  6  8  2  0  0  0  0
  7  9  1  0  0  0  0
  8 10  1  0  0  0  0
 10 11  1  0  0  0  0
 11 12  1  0  0  0  0
 12 13  2  0  0  0  0
 12 14  1  0  0  0  0
 14 15  1  0  0  0  0
 15 16  1  0  0  0  0
 15 17  1  0  0  0  0
 16 18  2  0  0  0  0
 17 19  2  0  0  0  0
 17 20  1  0  0  0  0
 20 21  1  0  0  0  0
 21 22  1  0  0  0  0
 21 23  1  0  0  0  0
 22 24  1  0  0  0  0
 23 25  1  0  0  0  0
 24 26  1  0  0  0  0
  7  8  1  0  0  0  0
 18 19  1  0  0  0  0
 25 26  1  0  0  0  0
  4 27  1  0  0  0  0
  6 28  1  0  0  0  0
 10 29  1  0  0  0  0
 10 30  1  0  0  0  0
 11 31  1  0  0  0  0
 14 32  1  0  0  0  0
 14 33  1  0  0  0  0
 20 34  1  0  0  0  0
 20 35  1  0  0  0  0
 22 36  1  0  0  0  0
 22 37  1  0  0  0  0
 23 38  1  0  0  0  0
 23 39  1  0  0  0  0
 24 40  1  0  0  0  0
 24 41  1  0  0  0  0
 25 42  1  0  0  0  0
 25 43  1  0  0  0  0
M  END
> <BIOSOLVEIT.HYDE_ESTIMATED_AFFINITY_LOWER_BOUNDARY [nM]>
717.597168

> <BIOSOLVEIT.HYDE_ESTIMATED_AFFINITY_UPPER_BOUNDARY [nM]>
71297.521456

> <BIOSOLVEIT.HYDE_LIGAND_EFFICIENCY range: ++, +, 0, -, -->
-

> <BIOSOLVEIT.HYDE_LIGAND_LIPOPHILIC_EFFICIENCY range: ++, +, 0, -, -->
0

> <BIOSOLVEIT.INTER_CLASH range: red, yellow, green>
yellow

> <BIOSOLVEIT.INTRA_CLASH range: red, yellow, green>
red

> <BIOSOLVEIT.LOGP>
1.2676

> <BIOSOLVEIT.MOLECULAR WEIGHT>
403.243

> <BIOSOLVEIT.MOLECULE_CHECKSUM>
LTI5LjM3MDc7MS4xMjk2NA==

> <BIOSOLVEIT.TORSION_QUALITY range: red, yellow, green, not rotatable>
green

> <BIOSOLVEIT.TPSA>
85.17

> <BIOSOLVEIT.SEESAR_FAVORITE>
favorite

> <smc_score>
0.938

> <QED_score>
0.732

> <distance>
0.706

> <SimilarityPheSA_1>
0.649

> <Smiles>
O=C(Cn1nnnc1CN1CCOCC1)NCc1cc(Cl)c(Cl)cc1F

> <Similarity_SkelSpheres>
0.574

> <Cluster No>
451.0

> <QueryID>
JAN-GHE-5a013bed-2

> <SimilarityPheSA>
0.6491

> <Postera series>
3-aminopyridine-like

> <PDB_code>
Mpro-x10466

> <Approach>
DGM_exploratory_RL

> <ID>
20210628_947

> <SimilarityPheSA_2>
0.664

> <OPTIBRIUM.logD>
-0.269118

> <OPTIBRIUM.BBB category>
-

> <OPTIBRIUM.logP>
1.36368

> <OPTIBRIUM.P-gp category>
yes

> <OPTIBRIUM.logS>
3.43185

> <OPTIBRIUM.HIA category>
-

> <OPTIBRIUM.PPB90 category>
low

> <OPTIBRIUM.2D6 affinity category>
low

> <OPTIBRIUM.hERG pIC50>
5.13977

> <OPTIBRIUM.2C9 pKi>
4.68636

> <OPTIBRIUM.BBB log([brain]:[blood])>
-0.437916

> <OPTIBRIUM.logS @ pH7.4>
3.23591

$$$$
Compound 555_1_01
haSeeSAR  07122111353D 1   1.00000     0.00000     0
SeeSAR 11.0.2 hazemaj
 53 57  0  0  0  0            999 V2000
    9.2387    1.6262   32.0040 Cl  0  0  0  0  0  0  0  0  0  0  0  0
    8.7877    1.6722   30.2841 C   0  0  0  0  0  0  0  0  0  0  0  0
    7.8282    2.5735   29.8470 C   0  0  0  0  0  0  0  0  0  0  0  0
    9.3865    0.8061   29.3794 C   0  0  0  0  0  0  0  0  0  0  0  0
    7.0504    3.6802   31.0016 Cl  0  0  0  0  0  0  0  0  0  0  0  0
    7.4540    2.6435   28.5128 C   0  0  0  0  0  0  0  0  0  0  0  0
    8.9991    0.8736   28.0446 C   0  0  0  0  0  0  0  0  0  0  0  0
    8.0506    1.7912   27.5927 C   0  0  0  0  0  0  0  0  0  0  0  0
    9.6449   -0.1102   27.0841 C   0  0  0  0  0  0  0  0  0  0  0  0
    7.6696    1.8905   26.1237 C   0  0  0  0  0  0  0  0  0  0  0  0
    9.5160    0.3578   25.6444 C   0  0  2  0  0  0  0  0  0  0  0  0
    8.0458    0.6225   25.3751 C   0  0  0  0  0  0  0  0  0  0  0  0
   10.0337   -0.7543   24.7457 C   0  0  0  0  0  0  0  0  0  0  0  0
   10.2408   -0.2147   23.3399 C   0  0  0  0  0  0  0  0  0  0  0  0
    9.0288   -0.4451   22.5436 N   0  0  0  0  0  0  0  0  0  0  0  0
    8.6073    0.3205   21.4588 C   0  0  0  0  0  0  0  0  0  0  0  0
    8.0549   -1.5137   22.8132 C   0  0  0  0  0  0  0  0  0  0  0  0
    9.1672    1.3320   21.0467 O   0  0  0  0  0  0  0  0  0  0  0  0
    7.4575   -0.2414   20.9149 N   0  0  0  0  0  0  0  0  0  0  0  0
    7.1364   -1.4928   21.6038 C   0  0  0  0  0  0  0  0  0  0  0  0
    6.7253    0.2938   19.8468 C   0  0  0  0  0  0  0  0  0  0  0  0
    5.5368    0.9978   20.0275 C   0  0  0  0  0  0  0  0  0  0  0  0
    7.2087    0.1120   18.5554 C   0  0  0  0  0  0  0  0  0  0  0  0
    4.8571    1.5040   18.9240 C   0  0  0  0  0  0  0  0  0  0  0  0
    4.9987    1.2140   21.2937 C   0  0  0  0  0  0  0  0  0  0  0  0
    6.5399    0.6075   17.5035 N   0  0  0  0  0  0  0  0  0  0  0  0
    5.3939    1.2875   17.6593 C   0  0  0  0  0  0  0  0  0  0  0  0
    3.6677    2.2099   19.0749 C   0  0  0  0  0  0  0  0  0  0  0  0
    3.8118    1.9167   21.4730 C   0  0  0  0  0  0  0  0  0  0  0  0
    3.1537    2.4106   20.3515 C   0  0  0  0  0  0  0  0  0  0  0  0
   10.0790    0.1501   29.6795 H   0  0  0  0  0  0  0  0  0  0  0  0
    6.7615    3.3014   28.2166 H   0  0  0  0  0  0  0  0  0  0  0  0
    9.1974   -0.9994   27.1788 H   0  0  0  0  0  0  0  0  0  0  0  0
   10.6146   -0.1991   27.3121 H   0  0  0  0  0  0  0  0  0  0  0  0
    8.1487    2.6665   25.7136 H   0  0  0  0  0  0  0  0  0  0  0  0
    6.6823    2.0323   26.0511 H   0  0  0  0  0  0  0  0  0  0  0  0
   10.0488    1.1923   25.5034 H   0  0  0  0  0  0  0  0  0  0  0  0
    7.8945    0.7466   24.3945 H   0  0  0  0  0  0  0  0  0  0  0  0
    7.4944   -0.1446   25.7030 H   0  0  0  0  0  0  0  0  0  0  0  0
    9.3683   -1.5004   24.7216 H   0  0  0  0  0  0  0  0  0  0  0  0
   10.9032   -1.0945   25.1036 H   0  0  0  0  0  0  0  0  0  0  0  0
   11.0141   -0.6837   22.9133 H   0  0  0  0  0  0  0  0  0  0  0  0
   10.4291    0.7665   23.3838 H   0  0  0  0  0  0  0  0  0  0  0  0
    7.5429   -1.3240   23.6510 H   0  0  0  0  0  0  0  0  0  0  0  0
    8.5129   -2.3988   22.8956 H   0  0  0  0  0  0  0  0  0  0  0  0
    6.1779   -1.5026   21.8888 H   0  0  0  0  0  0  0  0  0  0  0  0
    7.3161   -2.2778   21.0109 H   0  0  0  0  0  0  0  0  0  0  0  0
    8.0604   -0.3915   18.4102 H   0  0  0  0  0  0  0  0  0  0  0  0
    5.4779    0.8549   22.0946 H   0  0  0  0  0  0  0  0  0  0  0  0
    4.9190    1.6436   16.8547 H   0  0  0  0  0  0  0  0  0  0  0  0
    3.1879    2.5690   18.2744 H   0  0  0  0  0  0  0  0  0  0  0  0
    3.4393    2.0638   22.3893 H   0  0  0  0  0  0  0  0  0  0  0  0
    2.2989    2.9171   20.4648 H   0  0  0  0  0  0  0  0  0  0  0  0
  1  2  1  0  0  0  0
  2  3  2  0  0  0  0
  2  4  1  0  0  0  0
  3  5  1  0  0  0  0
  3  6  1  0  0  0  0
  4  7  2  0  0  0  0
  6  8  2  0  0  0  0
  7  9  1  0  0  0  0
  8 10  1  0  0  0  0
  9 11  1  0  0  0  0
 10 12  1  0  0  0  0
 11 13  1  0  0  0  0
 13 14  1  0  0  0  0
 14 15  1  0  0  0  0
 15 16  1  0  0  0  0
 15 17  1  0  0  0  0
 16 18  2  0  0  0  0
 16 19  1  0  0  0  0
 17 20  1  0  0  0  0
 19 21  1  0  0  0  0
 21 22  1  0  0  0  0
 21 23  2  0  0  0  0
 22 24  1  0  0  0  0
 22 25  2  0  0  0  0
 23 26  1  0  0  0  0
 24 27  1  0  0  0  0
 24 28  2  0  0  0  0
 25 29  1  0  0  0  0
 28 30  1  0  0  0  0
  7  8  1  0  0  0  0
 11 12  1  0  0  0  0
 19 20  1  0  0  0  0
 26 27  2  0  0  0  0
 29 30  2  0  0  0  0
  4 31  1  0  0  0  0
  6 32  1  0  0  0  0
  9 33  1  0  0  0  0
  9 34  1  0  0  0  0
 10 35  1  0  0  0  0
 10 36  1  0  0  0  0
 11 37  1  0  0  0  0
 12 38  1  0  0  0  0
 12 39  1  0  0  0  0
 13 40  1  0  0  0  0
 13 41  1  0  0  0  0
 14 42  1  0  0  0  0
 14 43  1  0  0  0  0
 17 44  1  0  0  0  0
 17 45  1  0  0  0  0
 20 46  1  0  0  0  0
 20 47  1  0  0  0  0
 23 48  1  0  0  0  0
 25 49  1  0  0  0  0
 27 50  1  0  0  0  0
 28 51  1  0  0  0  0
 29 52  1  0  0  0  0
 30 53  1  0  0  0  0
M  END
> <BIOSOLVEIT.HYDE_ESTIMATED_AFFINITY_LOWER_BOUNDARY [nM]>
788.588436

> <BIOSOLVEIT.HYDE_ESTIMATED_AFFINITY_UPPER_BOUNDARY [nM]>
78350.923626

> <BIOSOLVEIT.HYDE_LIGAND_EFFICIENCY range: ++, +, 0, -, -->
-

> <BIOSOLVEIT.HYDE_LIGAND_LIPOPHILIC_EFFICIENCY range: ++, +, 0, -, -->
--

> <BIOSOLVEIT.INTER_CLASH range: red, yellow, green>
green

> <BIOSOLVEIT.INTRA_CLASH range: red, yellow, green>
green

> <BIOSOLVEIT.LOGP>
5.9788

> <BIOSOLVEIT.MOLECULAR WEIGHT>
440.372

> <BIOSOLVEIT.MOLECULE_CHECKSUM>
LTI5LjEzNjg7MC45NzEyMjg=

> <BIOSOLVEIT.TORSION_QUALITY range: red, yellow, green, not rotatable>
red

> <BIOSOLVEIT.TPSA>
36.44

> <BIOSOLVEIT.SEESAR_FAVORITE>
favorite

> <smc_score>
0.688

> <QED_score>
0.501

> <distance>
0.529

> <SimilarityPheSA_1>
0.686

> <Smiles>
O=C1N(CCC2CCc3cc(Cl)c(Cl)cc3C2)CCN1c1cncc2ccccc12

> <Similarity_SkelSpheres>
0.763

> <Cluster No>
297.0

> <QueryID>
PET-UNK-c9c1e0d8-3

> <SimilarityPheSA>
0.6862

> <Postera series>
3-aminopyridine-like

> <PDB_code>
Mpro-x12587

> <Approach>
DGM_focussed_RL

> <ID>
20210618_554

> <SimilarityPheSA_2>
0.798

> <OPTIBRIUM.logD>
5.63807

> <OPTIBRIUM.BBB category>
+

> <OPTIBRIUM.logP>
5.63807

> <OPTIBRIUM.P-gp category>
yes

> <OPTIBRIUM.logS>
-0.611183

> <OPTIBRIUM.HIA category>
+

> <OPTIBRIUM.PPB90 category>
high

> <OPTIBRIUM.2D6 affinity category>
medium

> <OPTIBRIUM.hERG pIC50>
6.18332

> <OPTIBRIUM.2C9 pKi>
5.70681

> <OPTIBRIUM.BBB log([brain]:[blood])>
0.0866107

> <OPTIBRIUM.logS @ pH7.4>
-0.611183

$$$$
Compound 760_1_06
haSeeSAR  07122111353D 1   1.00000     0.00000     0
SeeSAR 11.0.2 hazemaj
 48 50  0  0  0  0            999 V2000
   13.7310    0.9864   23.0101 Cl  0  0  0  0  0  0  0  0  0  0  0  0
   12.2453    0.0581   22.6966 C   0  0  0  0  0  0  0  0  0  0  0  0
   12.3333   -1.2265   22.1707 C   0  0  0  0  0  0  0  0  0  0  0  0
   11.0048    0.6200   22.9788 C   0  0  0  0  0  0  0  0  0  0  0  0
   13.9270   -1.9350   21.8145 Cl  0  0  0  0  0  0  0  0  0  0  0  0
   11.1844   -1.9689   21.9172 C   0  0  0  0  0  0  0  0  0  0  0  0
    9.8589   -0.1256   22.7244 C   0  0  0  0  0  0  0  0  0  0  0  0
    9.9414   -1.4103   22.1978 C   0  0  0  0  0  0  0  0  0  0  0  0
    8.5007    0.4847   23.0309 C   0  0  0  0  0  0  0  0  0  0  0  0
    8.0352    1.3083   21.8412 C   0  0  0  0  0  0  0  0  0  0  0  0
    8.8564    1.9143   21.1530 O   0  0  0  0  0  0  0  0  0  0  0  0
    6.6719    1.3776   21.5280 N   0  0  0  0  0  0  0  0  0  0  0  0
    6.0210    2.5638   20.9605 C   0  0  1  0  0  0  0  0  0  0  0  0
    5.7286    0.2712   21.7249 C   0  0  0  0  0  0  0  0  0  0  0  0
    4.8861    2.0275   20.1200 C   0  0  0  0  0  0  0  0  0  0  0  0
    5.4315    3.4198   22.0699 C   0  0  0  0  0  0  0  0  0  0  0  0
    5.5558   -0.3134   20.3371 C   0  0  0  0  0  0  0  0  0  0  0  0
    5.4498    0.8473   19.4551 N   0  0  0  0  0  0  0  0  0  0  0  0
    6.2669    3.2996   23.2807 N   0  0  0  0  0  0  0  0  0  0  0  0
    5.8629    0.8331   18.1174 C   0  0  0  0  0  0  0  0  0  0  0  0
    7.4821    3.9329   23.5384 C   0  0  0  0  0  0  0  0  0  0  0  0
    5.9497    2.4952   24.4579 C   0  0  0  0  0  0  0  0  0  0  0  0
    6.5819   -0.0770   17.7049 O   0  0  0  0  0  0  0  0  0  0  0  0
    5.4234    1.9413   17.1745 C   0  0  0  0  0  0  0  0  0  0  0  0
    7.9917    4.7703   22.8149 O   0  0  0  0  0  0  0  0  0  0  0  0
    8.0401    3.4894   24.6753 O   0  0  0  0  0  0  0  0  0  0  0  0
    7.2855    2.4013   25.1744 C   0  0  0  0  0  0  0  0  0  0  0  0
   10.9382    1.5431   23.3575 H   0  0  0  0  0  0  0  0  0  0  0  0
   11.2511   -2.8919   21.5383 H   0  0  0  0  0  0  0  0  0  0  0  0
    9.1070   -1.9326   22.0208 H   0  0  0  0  0  0  0  0  0  0  0  0
    8.5739    1.0736   23.8359 H   0  0  0  0  0  0  0  0  0  0  0  0
    7.8404   -0.2445   23.2104 H   0  0  0  0  0  0  0  0  0  0  0  0
    6.6615    3.0915   20.4028 H   0  0  0  0  0  0  0  0  0  0  0  0
    4.8563    0.6066   22.0807 H   0  0  0  0  0  0  0  0  0  0  0  0
    6.1052   -0.4096   22.3532 H   0  0  0  0  0  0  0  0  0  0  0  0
    4.5929    2.7064   19.4469 H   0  0  0  0  0  0  0  0  0  0  0  0
    4.1095    1.7720   20.6958 H   0  0  0  0  0  0  0  0  0  0  0  0
    4.5031    3.1088   22.2732 H   0  0  0  0  0  0  0  0  0  0  0  0
    5.4061    4.3753   21.7759 H   0  0  0  0  0  0  0  0  0  0  0  0
    4.7258   -0.8692   20.2896 H   0  0  0  0  0  0  0  0  0  0  0  0
    6.3465   -0.8734   20.0895 H   0  0  0  0  0  0  0  0  0  0  0  0
    5.6176    1.5891   24.1957 H   0  0  0  0  0  0  0  0  0  0  0  0
    5.2658    2.9484   25.0298 H   0  0  0  0  0  0  0  0  0  0  0  0
    5.8056    1.7764   16.2653 H   0  0  0  0  0  0  0  0  0  0  0  0
    4.4251    1.9553   17.1190 H   0  0  0  0  0  0  0  0  0  0  0  0
    5.7506    2.8213   17.5190 H   0  0  0  0  0  0  0  0  0  0  0  0
    7.7372    1.5340   24.9655 H   0  0  0  0  0  0  0  0  0  0  0  0
    7.1615    2.4827   26.1633 H   0  0  0  0  0  0  0  0  0  0  0  0
  1  2  1  0  0  0  0
  2  3  2  0  0  0  0
  2  4  1  0  0  0  0
  3  5  1  0  0  0  0
  3  6  1  0  0  0  0
  4  7  2  0  0  0  0
  6  8  2  0  0  0  0
  7  9  1  0  0  0  0
  9 10  1  0  0  0  0
 10 11  2  0  0  0  0
 10 12  1  0  0  0  0
 12 13  1  0  0  0  0
 12 14  1  0  0  0  0
 13 15  1  0  0  0  0
 13 16  1  0  0  0  0
 14 17  1  0  0  0  0
 15 18  1  0  0  0  0
 16 19  1  0  0  0  0
 18 20  1  0  0  0  0
 19 21  1  0  0  0  0
 19 22  1  0  0  0  0
 20 23  2  0  0  0  0
 20 24  1  0  0  0  0
 21 25  2  0  0  0  0
 21 26  1  0  0  0  0
 22 27  1  0  0  0  0
  7  8  1  0  0  0  0
 17 18  1  0  0  0  0
 26 27  1  0  0  0  0
  4 28  1  0  0  0  0
  6 29  1  0  0  0  0
  8 30  1  0  0  0  0
  9 31  1  0  0  0  0
  9 32  1  0  0  0  0
 13 33  1  0  0  0  0
 14 34  1  0  0  0  0
 14 35  1  0  0  0  0
 15 36  1  0  0  0  0
 15 37  1  0  0  0  0
 16 38  1  0  0  0  0
 16 39  1  0  0  0  0
 17 40  1  0  0  0  0
 17 41  1  0  0  0  0
 22 42  1  0  0  0  0
 22 43  1  0  0  0  0
 24 44  1  0  0  0  0
 24 45  1  0  0  0  0
 24 46  1  0  0  0  0
 27 47  1  0  0  0  0
 27 48  1  0  0  0  0
M  END
> <BIOSOLVEIT.HYDE_ESTIMATED_AFFINITY_LOWER_BOUNDARY [nM]>
891.344243

> <BIOSOLVEIT.HYDE_ESTIMATED_AFFINITY_UPPER_BOUNDARY [nM]>
88560.320626

> <BIOSOLVEIT.HYDE_LIGAND_EFFICIENCY range: ++, +, 0, -, -->
-

> <BIOSOLVEIT.HYDE_LIGAND_LIPOPHILIC_EFFICIENCY range: ++, +, 0, -, -->
-

> <BIOSOLVEIT.INTER_CLASH range: red, yellow, green>
green

> <BIOSOLVEIT.INTRA_CLASH range: red, yellow, green>
green

> <BIOSOLVEIT.LOGP>
2.0474

> <BIOSOLVEIT.MOLECULAR WEIGHT>
414.287

> <BIOSOLVEIT.MOLECULE_CHECKSUM>
LTI4LjgzMzI7MS4wNjc5

> <BIOSOLVEIT.TORSION_QUALITY range: red, yellow, green, not rotatable>
green

> <BIOSOLVEIT.TPSA>
70.16

> <BIOSOLVEIT.SEESAR_FAVORITE>
favorite

> <smc_score>
0.563

> <QED_score>
0.756

> <distance>
0.732

> <SimilarityPheSA_1>
0.63

> <Smiles>
CC(=O)N1CCN(C(=O)Cc2ccc(Cl)c(Cl)c2)C(CN2CCOC2=O)C1

> <Similarity_SkelSpheres>
0.618

> <Cluster No>
12.0

> <QueryID>
MAT-POS-bb423b95-1

> <SimilarityPheSA>
0.6302

> <Postera series>
3-aminopyridine-like

> <PDB_code>
Mpro-x11542

> <Approach>
DGM_exploratory_RL

> <ID>
20210628_30

> <SimilarityPheSA_2>
0.613

> <OPTIBRIUM.logD>
1.39605

> <OPTIBRIUM.BBB category>
-

> <OPTIBRIUM.logP>
1.39605

> <OPTIBRIUM.P-gp category>
yes

> <OPTIBRIUM.logS>
3.56248

> <OPTIBRIUM.HIA category>
+

> <OPTIBRIUM.PPB90 category>
low

> <OPTIBRIUM.2D6 affinity category>
medium

> <OPTIBRIUM.hERG pIC50>
4.67136

> <OPTIBRIUM.2C9 pKi>
4.76795

> <OPTIBRIUM.BBB log([brain]:[blood])>
-0.889797

> <OPTIBRIUM.logS @ pH7.4>
3.56248

$$$$
Compound 1460_1_1
haSeeSAR  07122111353D 1   1.00000     0.00000     0
SeeSAR 11.0.2 hazemaj
 30 31  0  0  0  0            999 V2000
   13.5032   -1.7869   21.2489 Cl  0  0  0  0  0  0  0  0  0  0  0  0
   12.3738   -0.7140   22.1090 C   0  0  0  0  0  0  0  0  0  0  0  0
   12.8537    0.4023   22.7846 C   0  0  0  0  0  0  0  0  0  0  0  0
   11.0133   -1.0013   22.0999 C   0  0  0  0  0  0  0  0  0  0  0  0
   14.1579    0.6624   22.7825 F   0  0  0  0  0  0  0  0  0  0  0  0
   11.9814    1.2479   23.4617 C   0  0  0  0  0  0  0  0  0  0  0  0
   10.1450   -0.1531   22.7776 C   0  0  0  0  0  0  0  0  0  0  0  0
   10.6198    0.9650   23.4553 C   0  0  0  0  0  0  0  0  0  0  0  0
    8.6555   -0.4547   22.7743 C   0  0  0  0  0  0  0  0  0  0  0  0
    8.2414   -0.8645   21.4247 N   0  0  0  0  0  0  0  0  0  0  0  0
    8.2735    0.0070   20.4297 C   0  0  0  0  0  0  0  0  0  0  0  0
    8.6501    1.1610   20.6342 O   0  0  0  0  0  0  0  0  0  0  0  0
    7.8454   -0.4168   19.0342 C   0  0  0  0  0  0  0  0  0  0  0  0
    6.6599    0.4251   18.5902 C   0  0  0  0  0  0  0  0  0  0  0  0
    6.3798    0.7960   17.3649 N   0  0  0  0  0  0  0  0  0  0  0  0
    5.6929    0.9338   19.4003 N   0  0  0  0  0  0  0  0  0  0  0  0
    5.3118    1.4787   17.3588 O   0  0  0  0  0  0  0  0  0  0  0  0
    4.8805    1.5795   18.5958 C   0  0  0  0  0  0  0  0  0  0  0  0
    3.6251    2.3185   19.0366 C   0  0  0  0  0  0  0  0  0  0  0  0
   10.6658   -1.8035   21.6144 H   0  0  0  0  0  0  0  0  0  0  0  0
   12.3293    2.0498   23.9474 H   0  0  0  0  0  0  0  0  0  0  0  0
    9.9820    1.5654   23.9378 H   0  0  0  0  0  0  0  0  0  0  0  0
    8.1490    0.3643   23.0441 H   0  0  0  0  0  0  0  0  0  0  0  0
    8.4634   -1.1932   23.4205 H   0  0  0  0  0  0  0  0  0  0  0  0
    7.9356   -1.8019   21.2585 H   0  0  0  0  0  0  0  0  0  0  0  0
    7.5836   -1.3819   19.0445 H   0  0  0  0  0  0  0  0  0  0  0  0
    8.6053   -0.2843   18.3978 H   0  0  0  0  0  0  0  0  0  0  0  0
    3.1811    2.7264   18.2388 H   0  0  0  0  0  0  0  0  0  0  0  0
    2.9970    1.6761   19.4756 H   0  0  0  0  0  0  0  0  0  0  0  0
    3.8726    3.0386   19.6849 H   0  0  0  0  0  0  0  0  0  0  0  0
  1  2  1  0  0  0  0
  2  3  2  0  0  0  0
  2  4  1  0  0  0  0
  3  5  1  0  0  0  0
  3  6  1  0  0  0  0
  4  7  2  0  0  0  0
  6  8  2  0  0  0  0
  7  9  1  0  0  0  0
  9 10  1  0  0  0  0
 10 11  1  0  0  0  0
 11 12  2  0  0  0  0
 11 13  1  0  0  0  0
 13 14  1  0  0  0  0
 14 15  2  0  0  0  0
 14 16  1  0  0  0  0
 15 17  1  0  0  0  0
 16 18  2  0  0  0  0
 18 19  1  0  0  0  0
  7  8  1  0  0  0  0
 17 18  1  0  0  0  0
  4 20  1  0  0  0  0
  6 21  1  0  0  0  0
  8 22  1  0  0  0  0
  9 23  1  0  0  0  0
  9 24  1  0  0  0  0
 10 25  1  0  0  0  0
 13 26  1  0  0  0  0
 13 27  1  0  0  0  0
 19 28  1  0  0  0  0
 19 29  1  0  0  0  0
 19 30  1  0  0  0  0
M  END
> <BIOSOLVEIT.HYDE_ESTIMATED_AFFINITY_LOWER_BOUNDARY [nM]>
902.476231

> <BIOSOLVEIT.HYDE_ESTIMATED_AFFINITY_UPPER_BOUNDARY [nM]>
89666.349428

> <BIOSOLVEIT.HYDE_LIGAND_EFFICIENCY range: ++, +, 0, -, -->
0

> <BIOSOLVEIT.HYDE_LIGAND_LIPOPHILIC_EFFICIENCY range: ++, +, 0, -, -->
-

> <BIOSOLVEIT.INTER_CLASH range: red, yellow, green>
green

> <BIOSOLVEIT.INTRA_CLASH range: red, yellow, green>
green

> <BIOSOLVEIT.LOGP>
2.02942

> <BIOSOLVEIT.MOLECULAR WEIGHT>
283.689

> <BIOSOLVEIT.MOLECULE_CHECKSUM>
LTI4LjgwMjQ7MS41MTU5Mg==

> <BIOSOLVEIT.TORSION_QUALITY range: red, yellow, green, not rotatable>
yellow

> <BIOSOLVEIT.TPSA>
68.02

> <BIOSOLVEIT.SEESAR_FAVORITE>
favorite

> <smc_score>
0.625

> <QED_score>
0.932

> <distance>
0.542

> <SimilarityPheSA_1>
0.631

> <Smiles>
Cc1nc(CC(=O)NCc2ccc(F)c(Cl)c2)no1

> <Similarity_SkelSpheres>
0.634

> <Cluster No>
321.0

> <QueryID>
JAN-GHE-5a013bed-2

> <SimilarityPheSA>
0.631

> <Postera series>
3-aminopyridine-like

> <PDB_code>
Mpro-x10466

> <Approach>
DGM_exploratory_RL

> <ID>
20210628_730

> <SimilarityPheSA_2>
0.717

> <OPTIBRIUM.logD>
2.29016

> <OPTIBRIUM.BBB category>
-

> <OPTIBRIUM.logP>
2.29016

> <OPTIBRIUM.P-gp category>
no

> <OPTIBRIUM.logS>
2.57603

> <OPTIBRIUM.HIA category>
+

> <OPTIBRIUM.PPB90 category>
low

> <OPTIBRIUM.2D6 affinity category>
medium

> <OPTIBRIUM.hERG pIC50>
4.3959

> <OPTIBRIUM.2C9 pKi>
4.57935

> <OPTIBRIUM.BBB log([brain]:[blood])>
-0.196244

> <OPTIBRIUM.logS @ pH7.4>
2.57603

$$$$
Compound 129_1_06
haSeeSAR  07122111353D 1   1.00000     0.00000     0
SeeSAR 11.0.2 hazemaj
 40 42  0  0  0  0            999 V2000
   12.7410    0.5754   25.2094 Cl  0  0  0  0  0  0  0  0  0  0  0  0
   12.0442   -0.1795   23.7557 C   0  0  0  0  0  0  0  0  0  0  0  0
   10.6708   -0.3376   23.6223 C   0  0  0  0  0  0  0  0  0  0  0  0
   12.9362   -0.6093   22.7782 C   0  0  0  0  0  0  0  0  0  0  0  0
    9.8114    0.0536   24.5974 O   0  0  0  0  0  0  0  0  0  0  0  0
   10.2224   -0.9342   22.4456 C   0  0  0  0  0  0  0  0  0  0  0  0
   12.4479   -1.2139   21.6206 C   0  0  0  0  0  0  0  0  0  0  0  0
    8.4115    0.1925   24.3817 C   0  0  0  0  0  0  0  0  0  0  0  0
   11.0788   -1.3810   21.4447 C   0  0  0  0  0  0  0  0  0  0  0  0
    8.7250   -1.1016   22.2364 C   0  0  1  0  0  0  0  0  0  0  0  0
   13.5456   -1.7757   20.3351 Cl  0  0  0  0  0  0  0  0  0  0  0  0
    7.9362   -0.9781   23.5317 C   0  0  1  0  0  0  0  0  0  0  0  0
    8.1778   -0.0584   21.2670 C   0  0  0  0  0  0  0  0  0  0  0  0
    8.0173   -2.2360   24.3857 C   0  0  0  0  0  0  0  0  0  0  0  0
    8.9067    0.8465   20.8607 O   0  0  0  0  0  0  0  0  0  0  0  0
    6.9199   -0.1263   20.8630 N   0  0  0  0  0  0  0  0  0  0  0  0
    6.5646    0.3520   19.5953 C   0  0  0  0  0  0  0  0  0  0  0  0
    5.4444    1.0574   19.2856 N   0  0  0  0  0  0  0  0  0  0  0  0
    7.2849    0.1874   18.4520 C   0  0  0  0  0  0  0  0  0  0  0  0
    5.4798    1.3236   17.9490 C   0  0  0  0  0  0  0  0  0  0  0  0
    4.3844    1.4617   20.2198 C   0  0  0  0  0  0  0  0  0  0  0  0
    6.5818    0.8002   17.4582 N   0  0  0  0  0  0  0  0  0  0  0  0
    4.8040    2.7307   20.9438 C   0  0  0  0  0  0  0  0  0  0  0  0
   13.9203   -0.4854   22.9049 H   0  0  0  0  0  0  0  0  0  0  0  0
    8.2270    1.0522   23.9054 H   0  0  0  0  0  0  0  0  0  0  0  0
    7.9327    0.1884   25.2596 H   0  0  0  0  0  0  0  0  0  0  0  0
   10.7180   -1.8124   20.6178 H   0  0  0  0  0  0  0  0  0  0  0  0
    8.5592   -2.0092   21.8507 H   0  0  0  0  0  0  0  0  0  0  0  0
    6.9765   -0.8226   23.2976 H   0  0  0  0  0  0  0  0  0  0  0  0
    7.7099   -3.0227   23.8504 H   0  0  0  0  0  0  0  0  0  0  0  0
    8.9628   -2.3804   24.6777 H   0  0  0  0  0  0  0  0  0  0  0  0
    7.4325   -2.1311   25.1901 H   0  0  0  0  0  0  0  0  0  0  0  0
    6.2226   -0.5190   21.4626 H   0  0  0  0  0  0  0  0  0  0  0  0
    8.1588   -0.2897   18.3595 H   0  0  0  0  0  0  0  0  0  0  0  0
    4.7886    1.8287   17.4323 H   0  0  0  0  0  0  0  0  0  0  0  0
    4.2317    0.7324   20.8868 H   0  0  0  0  0  0  0  0  0  0  0  0
    3.5396    1.6313   19.7123 H   0  0  0  0  0  0  0  0  0  0  0  0
    4.0827    3.0058   21.5795 H   0  0  0  0  0  0  0  0  0  0  0  0
    5.6488    2.5610   21.4514 H   0  0  0  0  0  0  0  0  0  0  0  0
    4.9565    3.4600   20.2769 H   0  0  0  0  0  0  0  0  0  0  0  0
  1  2  1  0  0  0  0
  2  3  2  0  0  0  0
  2  4  1  0  0  0  0
  3  5  1  0  0  0  0
  3  6  1  0  0  0  0
  4  7  2  0  0  0  0
  5  8  1  0  0  0  0
  6  9  2  0  0  0  0
  6 10  1  0  0  0  0
  7 11  1  0  0  0  0
  8 12  1  0  0  0  0
 10 13  1  0  0  0  0
 12 14  1  0  0  0  0
 13 15  2  0  0  0  0
 13 16  1  0  0  0  0
 16 17  1  0  0  0  0
 17 18  1  0  0  0  0
 17 19  2  0  0  0  0
 18 20  1  0  0  0  0
 18 21  1  0  0  0  0
 19 22  1  0  0  0  0
 21 23  1  0  0  0  0
  7  9  1  0  0  0  0
 10 12  1  0  0  0  0
 20 22  2  0  0  0  0
  4 24  1  0  0  0  0
  8 25  1  0  0  0  0
  8 26  1  0  0  0  0
  9 27  1  0  0  0  0
 10 28  1  0  0  0  0
 12 29  1  0  0  0  0
 14 30  1  0  0  0  0
 14 31  1  0  0  0  0
 14 32  1  0  0  0  0
 16 33  1  0  0  0  0
 19 34  1  0  0  0  0
 20 35  1  0  0  0  0
 21 36  1  0  0  0  0
 21 37  1  0  0  0  0
 23 38  1  0  0  0  0
 23 39  1  0  0  0  0
 23 40  1  0  0  0  0
M  END
> <BIOSOLVEIT.HYDE_ESTIMATED_AFFINITY_LOWER_BOUNDARY [nM]>
944.606529

> <BIOSOLVEIT.HYDE_ESTIMATED_AFFINITY_UPPER_BOUNDARY [nM]>
93852.243608

> <BIOSOLVEIT.HYDE_LIGAND_EFFICIENCY range: ++, +, 0, -, -->
-

> <BIOSOLVEIT.HYDE_LIGAND_LIPOPHILIC_EFFICIENCY range: ++, +, 0, -, -->
--

> <BIOSOLVEIT.INTER_CLASH range: red, yellow, green>
yellow

> <BIOSOLVEIT.INTRA_CLASH range: red, yellow, green>
green

> <BIOSOLVEIT.LOGP>
3.9606

> <BIOSOLVEIT.MOLECULAR WEIGHT>
354.235

> <BIOSOLVEIT.MOLECULE_CHECKSUM>
LTI4LjY4OTM7MS4yNDczNg==

> <BIOSOLVEIT.TORSION_QUALITY range: red, yellow, green, not rotatable>
green

> <BIOSOLVEIT.TPSA>
56.15

> <BIOSOLVEIT.SEESAR_FAVORITE>
favorite

> <smc_score>
1.0

> <QED_score>
0.908

> <distance>
0.569

> <SimilarityPheSA_1>
0.705

> <Smiles>
CCn1cncc1NC(=O)C1c2cc(Cl)cc(Cl)c2OCC1C

> <Similarity_SkelSpheres>
0.646

> <Cluster No>
61.0

> <QueryID>
JAG-UCB-a3ef7265-20

> <SimilarityPheSA>
0.7047

> <Postera series>
3-aminopyridine-like

> <PDB_code>
Mpro-x10324

> <Approach>
DGM_focussed_RL

> <ID>
20210618_128

> <SimilarityPheSA_2>
0.826

> <OPTIBRIUM.logD>
3.837

> <OPTIBRIUM.BBB category>
-

> <OPTIBRIUM.logP>
3.837

> <OPTIBRIUM.P-gp category>
no

> <OPTIBRIUM.logS>
1.37148

> <OPTIBRIUM.HIA category>
+

> <OPTIBRIUM.PPB90 category>
high

> <OPTIBRIUM.2D6 affinity category>
high

> <OPTIBRIUM.hERG pIC50>
4.74232

> <OPTIBRIUM.2C9 pKi>
5.24386

> <OPTIBRIUM.BBB log([brain]:[blood])>
-0.0576938

> <OPTIBRIUM.logS @ pH7.4>
1.37148

$$$$
Compound 555_1_06
haSeeSAR  07122111353D 1   1.00000     0.00000     0
SeeSAR 11.0.2 hazemaj
 53 57  0  0  0  0            999 V2000
    7.2630    4.9979   28.6854 Cl  0  0  0  0  0  0  0  0  0  0  0  0
    7.8197    3.3627   28.2659 C   0  0  0  0  0  0  0  0  0  0  0  0
    8.6081    2.6473   29.1603 C   0  0  0  0  0  0  0  0  0  0  0  0
    7.4642    2.8030   27.0460 C   0  0  0  0  0  0  0  0  0  0  0  0
    9.0554    3.3694   30.7224 Cl  0  0  0  0  0  0  0  0  0  0  0  0
    9.0568    1.3717   28.8387 C   0  0  0  0  0  0  0  0  0  0  0  0
    7.9099    1.5224   26.7353 C   0  0  0  0  0  0  0  0  0  0  0  0
    8.7097    0.8064   27.6159 C   0  0  0  0  0  0  0  0  0  0  0  0
    7.4708    0.9044   25.4155 C   0  0  0  0  0  0  0  0  0  0  0  0
    9.2414   -0.5805   27.2780 C   0  0  0  0  0  0  0  0  0  0  0  0
    8.3428   -0.2744   25.0128 C   0  0  2  0  0  0  0  0  0  0  0  0
    8.4777   -1.2684   26.1570 C   0  0  0  0  0  0  0  0  0  0  0  0
    9.6861    0.1766   24.4611 C   0  0  0  0  0  0  0  0  0  0  0  0
   10.0129   -0.6203   23.2087 C   0  0  0  0  0  0  0  0  0  0  0  0
    8.8081   -0.7425   22.3781 N   0  0  0  0  0  0  0  0  0  0  0  0
    8.4330    0.1222   21.3523 C   0  0  0  0  0  0  0  0  0  0  0  0
    7.7930   -1.7934   22.5458 C   0  0  0  0  0  0  0  0  0  0  0  0
    9.0351    1.1426   21.0317 O   0  0  0  0  0  0  0  0  0  0  0  0
    7.2745   -0.3525   20.7476 N   0  0  0  0  0  0  0  0  0  0  0  0
    6.8978   -1.6426   21.3283 C   0  0  0  0  0  0  0  0  0  0  0  0
    6.5806    0.2925   19.7150 C   0  0  0  0  0  0  0  0  0  0  0  0
    5.4011    1.0022   19.9300 C   0  0  0  0  0  0  0  0  0  0  0  0
    7.0942    0.2183   18.4247 C   0  0  0  0  0  0  0  0  0  0  0  0
    4.7602    1.6204   18.8611 C   0  0  0  0  0  0  0  0  0  0  0  0
    4.8342    1.1140   21.1972 C   0  0  0  0  0  0  0  0  0  0  0  0
    6.4626    0.8211   17.4063 N   0  0  0  0  0  0  0  0  0  0  0  0
    5.3259    1.5080   17.5954 C   0  0  0  0  0  0  0  0  0  0  0  0
    3.5808    2.3345   19.0465 C   0  0  0  0  0  0  0  0  0  0  0  0
    3.6565    1.8224   21.4107 C   0  0  0  0  0  0  0  0  0  0  0  0
    3.0373    2.4295   20.3232 C   0  0  0  0  0  0  0  0  0  0  0  0
    6.8960    3.3130   26.4002 H   0  0  0  0  0  0  0  0  0  0  0  0
    9.6267    0.8623   29.4837 H   0  0  0  0  0  0  0  0  0  0  0  0
    7.5224    1.6019   24.7008 H   0  0  0  0  0  0  0  0  0  0  0  0
    6.5260    0.5895   25.5064 H   0  0  0  0  0  0  0  0  0  0  0  0
    9.1815   -1.1505   28.0975 H   0  0  0  0  0  0  0  0  0  0  0  0
   10.1986   -0.4936   27.0018 H   0  0  0  0  0  0  0  0  0  0  0  0
    7.8676   -0.7475   24.2709 H   0  0  0  0  0  0  0  0  0  0  0  0
    7.5716   -1.5416   26.4796 H   0  0  0  0  0  0  0  0  0  0  0  0
    8.9795   -2.0766   25.8487 H   0  0  0  0  0  0  0  0  0  0  0  0
   10.3967    0.0242   25.1480 H   0  0  0  0  0  0  0  0  0  0  0  0
    9.6440    1.1499   24.2354 H   0  0  0  0  0  0  0  0  0  0  0  0
   10.3331   -1.5316   23.4675 H   0  0  0  0  0  0  0  0  0  0  0  0
   10.7280   -0.1500   22.6915 H   0  0  0  0  0  0  0  0  0  0  0  0
    7.2729   -1.6529   23.3883 H   0  0  0  0  0  0  0  0  0  0  0  0
    8.2184   -2.6981   22.5636 H   0  0  0  0  0  0  0  0  0  0  0  0
    5.9345   -1.6406   21.5970 H   0  0  0  0  0  0  0  0  0  0  0  0
    7.0606   -2.3837   20.6770 H   0  0  0  0  0  0  0  0  0  0  0  0
    7.9398   -0.2877   18.2550 H   0  0  0  0  0  0  0  0  0  0  0  0
    5.2854    0.6739   21.9735 H   0  0  0  0  0  0  0  0  0  0  0  0
    4.8789    1.9456   16.8151 H   0  0  0  0  0  0  0  0  0  0  0  0
    3.1288    2.7747   18.2706 H   0  0  0  0  0  0  0  0  0  0  0  0
    3.2629    1.8936   22.3273 H   0  0  0  0  0  0  0  0  0  0  0  0
    2.1895    2.9416   20.4612 H   0  0  0  0  0  0  0  0  0  0  0  0
  1  2  1  0  0  0  0
  2  3  2  0  0  0  0
  2  4  1  0  0  0  0
  3  5  1  0  0  0  0
  3  6  1  0  0  0  0
  4  7  2  0  0  0  0
  6  8  2  0  0  0  0
  7  9  1  0  0  0  0
  8 10  1  0  0  0  0
  9 11  1  0  0  0  0
 10 12  1  0  0  0  0
 11 13  1  0  0  0  0
 13 14  1  0  0  0  0
 14 15  1  0  0  0  0
 15 16  1  0  0  0  0
 15 17  1  0  0  0  0
 16 18  2  0  0  0  0
 16 19  1  0  0  0  0
 17 20  1  0  0  0  0
 19 21  1  0  0  0  0
 21 22  1  0  0  0  0
 21 23  2  0  0  0  0
 22 24  1  0  0  0  0
 22 25  2  0  0  0  0
 23 26  1  0  0  0  0
 24 27  1  0  0  0  0
 24 28  2  0  0  0  0
 25 29  1  0  0  0  0
 28 30  1  0  0  0  0
  7  8  1  0  0  0  0
 11 12  1  0  0  0  0
 19 20  1  0  0  0  0
 26 27  2  0  0  0  0
 29 30  2  0  0  0  0
  4 31  1  0  0  0  0
  6 32  1  0  0  0  0
  9 33  1  0  0  0  0
  9 34  1  0  0  0  0
 10 35  1  0  0  0  0
 10 36  1  0  0  0  0
 11 37  1  0  0  0  0
 12 38  1  0  0  0  0
 12 39  1  0  0  0  0
 13 40  1  0  0  0  0
 13 41  1  0  0  0  0
 14 42  1  0  0  0  0
 14 43  1  0  0  0  0
 17 44  1  0  0  0  0
 17 45  1  0  0  0  0
 20 46  1  0  0  0  0
 20 47  1  0  0  0  0
 23 48  1  0  0  0  0
 25 49  1  0  0  0  0
 27 50  1  0  0  0  0
 28 51  1  0  0  0  0
 29 52  1  0  0  0  0
 30 53  1  0  0  0  0
M  END
> <BIOSOLVEIT.HYDE_ESTIMATED_AFFINITY_LOWER_BOUNDARY [nM]>
963.142513

> <BIOSOLVEIT.HYDE_ESTIMATED_AFFINITY_UPPER_BOUNDARY [nM]>
95693.903199

> <BIOSOLVEIT.HYDE_LIGAND_EFFICIENCY range: ++, +, 0, -, -->
-

> <BIOSOLVEIT.HYDE_LIGAND_LIPOPHILIC_EFFICIENCY range: ++, +, 0, -, -->
--

> <BIOSOLVEIT.INTER_CLASH range: red, yellow, green>
green

> <BIOSOLVEIT.INTRA_CLASH range: red, yellow, green>
yellow

> <BIOSOLVEIT.LOGP>
5.9788

> <BIOSOLVEIT.MOLECULAR WEIGHT>
440.372

> <BIOSOLVEIT.MOLECULE_CHECKSUM>
LTI4LjY0MTE7MC45NTQ3MDU=

> <BIOSOLVEIT.TORSION_QUALITY range: red, yellow, green, not rotatable>
yellow

> <BIOSOLVEIT.TPSA>
36.44

> <BIOSOLVEIT.SEESAR_FAVORITE>
favorite

> <smc_score>
0.688

> <QED_score>
0.501

> <distance>
0.529

> <SimilarityPheSA_1>
0.686

> <Smiles>
O=C1N(CCC2CCc3cc(Cl)c(Cl)cc3C2)CCN1c1cncc2ccccc12

> <Similarity_SkelSpheres>
0.763

> <Cluster No>
297.0

> <QueryID>
PET-UNK-c9c1e0d8-3

> <SimilarityPheSA>
0.6862

> <Postera series>
3-aminopyridine-like

> <PDB_code>
Mpro-x12587

> <Approach>
DGM_focussed_RL

> <ID>
20210618_554

> <SimilarityPheSA_2>
0.798

> <OPTIBRIUM.logD>
5.63807

> <OPTIBRIUM.BBB category>
+

> <OPTIBRIUM.logP>
5.63807

> <OPTIBRIUM.P-gp category>
yes

> <OPTIBRIUM.logS>
-0.611183

> <OPTIBRIUM.HIA category>
+

> <OPTIBRIUM.PPB90 category>
high

> <OPTIBRIUM.2D6 affinity category>
medium

> <OPTIBRIUM.hERG pIC50>
6.18332

> <OPTIBRIUM.2C9 pKi>
5.70681

> <OPTIBRIUM.BBB log([brain]:[blood])>
0.0866107

> <OPTIBRIUM.logS @ pH7.4>
-0.611183

$$$$
Compound 1677_1_03
haSeeSAR  07122111353D 1   1.00000     0.00000     0
SeeSAR 11.0.2 hazemaj
 44 46  0  0  0  0            999 V2000
   14.0705    0.0721   23.2867 Cl  0  0  0  0  0  0  0  0  0  0  0  0
   12.3180   -0.1711   23.0972 C   0  0  0  0  0  0  0  0  0  0  0  0
   11.8313   -0.9188   22.0314 C   0  0  0  0  0  0  0  0  0  0  0  0
   11.4445    0.3930   24.0210 C   0  0  0  0  0  0  0  0  0  0  0  0
   12.9675   -1.6306   20.8609 Cl  0  0  0  0  0  0  0  0  0  0  0  0
   10.4645   -1.1168   21.8685 C   0  0  0  0  0  0  0  0  0  0  0  0
   10.0774    0.1954   23.8598 C   0  0  0  0  0  0  0  0  0  0  0  0
    9.5925   -0.5523   22.7929 C   0  0  0  0  0  0  0  0  0  0  0  0
    9.2326    0.7275   24.7363 F   0  0  0  0  0  0  0  0  0  0  0  0
    8.0953   -0.7565   22.6317 C   0  0  0  0  0  0  0  0  0  0  0  0
    7.4059    0.5331   22.7819 N   0  0  0  0  0  0  0  0  0  0  0  0
    7.7183    1.5463   21.9906 C   0  0  0  0  0  0  0  0  0  0  0  0
    8.5862    1.4091   21.1285 O   0  0  0  0  0  0  0  0  0  0  0  0
    7.0054    2.8798   22.1459 C   0  0  0  0  0  0  0  0  0  0  0  0
    5.5870    2.6442   22.4561 N   0  0  0  0  0  0  0  0  0  0  0  0
    4.8443    3.3327   23.2894 N   0  0  0  0  0  0  0  0  0  0  0  0
    4.7982    1.6711   21.9406 C   0  0  0  0  0  0  0  0  0  0  0  0
    3.6713    2.8563   23.3117 N   0  0  0  0  0  0  0  0  0  0  0  0
    3.6194    1.8284   22.4942 N   0  0  0  0  0  0  0  0  0  0  0  0
    5.1999    0.6103   20.9279 C   0  0  0  0  0  0  0  0  0  0  0  0
    5.7711    1.2604   19.7364 N   0  3  0  0  0  0  0  0  0  0  0  0
    6.8700    0.4681   19.1528 C   0  0  0  0  0  0  0  0  0  0  0  0
    4.6876    1.4100   18.7495 C   0  0  0  0  0  0  0  0  0  0  0  0
    6.3527   -0.5507   18.1509 C   0  0  0  0  0  0  0  0  0  0  0  0
    5.2365    1.3735   17.3328 C   0  0  0  0  0  0  0  0  0  0  0  0
    5.8286    0.1181   17.0107 O   0  0  0  0  0  0  0  0  0  0  0  0
   11.7936    0.9314   24.7881 H   0  0  0  0  0  0  0  0  0  0  0  0
   10.1154   -1.6548   21.1013 H   0  0  0  0  0  0  0  0  0  0  0  0
    7.7685   -1.3926   23.3308 H   0  0  0  0  0  0  0  0  0  0  0  0
    7.9058   -1.1321   21.7245 H   0  0  0  0  0  0  0  0  0  0  0  0
    6.7008    0.6446   23.4822 H   0  0  0  0  0  0  0  0  0  0  0  0
    7.0787    3.3981   21.2939 H   0  0  0  0  0  0  0  0  0  0  0  0
    7.4274    3.3988   22.8892 H   0  0  0  0  0  0  0  0  0  0  0  0
    4.3945    0.0794   20.6641 H   0  0  0  0  0  0  0  0  0  0  0  0
    5.8814    0.0021   21.3348 H   0  0  0  0  0  0  0  0  0  0  0  0
    7.3492   -0.0128   19.8870 H   0  0  0  0  0  0  0  0  0  0  0  0
    7.5051    1.0860   18.6891 H   0  0  0  0  0  0  0  0  0  0  0  0
    4.2262    2.2845   18.8996 H   0  0  0  0  0  0  0  0  0  0  0  0
    4.0327    0.6633   18.8663 H   0  0  0  0  0  0  0  0  0  0  0  0
    5.6313   -1.0976   18.5758 H   0  0  0  0  0  0  0  0  0  0  0  0
    7.1024   -1.1495   17.8690 H   0  0  0  0  0  0  0  0  0  0  0  0
    5.9290    2.0887   17.2385 H   0  0  0  0  0  0  0  0  0  0  0  0
    4.4874    1.5485   16.6938 H   0  0  0  0  0  0  0  0  0  0  0  0
    6.1148    2.1652   19.9878 H   0  0  0  0  0  0  0  0  0  0  0  0
  1  2  1  0  0  0  0
  2  3  2  0  0  0  0
  2  4  1  0  0  0  0
  3  5  1  0  0  0  0
  3  6  1  0  0  0  0
  4  7  2  0  0  0  0
  6  8  2  0  0  0  0
  7  9  1  0  0  0  0
  8 10  1  0  0  0  0
 10 11  1  0  0  0  0
 11 12  1  0  0  0  0
 12 13  2  0  0  0  0
 12 14  1  0  0  0  0
 14 15  1  0  0  0  0
 15 16  1  0  0  0  0
 15 17  1  0  0  0  0
 16 18  2  0  0  0  0
 17 19  2  0  0  0  0
 17 20  1  0  0  0  0
 20 21  1  0  0  0  0
 21 22  1  0  0  0  0
 21 23  1  0  0  0  0
 22 24  1  0  0  0  0
 23 25  1  0  0  0  0
 24 26  1  0  0  0  0
  7  8  1  0  0  0  0
 18 19  1  0  0  0  0
 25 26  1  0  0  0  0
  4 27  1  0  0  0  0
  6 28  1  0  0  0  0
 10 29  1  0  0  0  0
 10 30  1  0  0  0  0
 11 31  1  0  0  0  0
 14 32  1  0  0  0  0
 14 33  1  0  0  0  0
 20 34  1  0  0  0  0
 20 35  1  0  0  0  0
 22 36  1  0  0  0  0
 22 37  1  0  0  0  0
 23 38  1  0  0  0  0
 23 39  1  0  0  0  0
 24 40  1  0  0  0  0
 24 41  1  0  0  0  0
 25 42  1  0  0  0  0
 25 43  1  0  0  0  0
 21 44  1  0  0  0  0
M  CHG  1  21   1
M  END
> <BIOSOLVEIT.HYDE_ESTIMATED_AFFINITY_LOWER_BOUNDARY [nM]>
989.083593

> <BIOSOLVEIT.HYDE_ESTIMATED_AFFINITY_UPPER_BOUNDARY [nM]>
98271.302846

> <BIOSOLVEIT.HYDE_LIGAND_EFFICIENCY range: ++, +, 0, -, -->
-

> <BIOSOLVEIT.HYDE_LIGAND_LIPOPHILIC_EFFICIENCY range: ++, +, 0, -, -->
+

> <BIOSOLVEIT.INTER_CLASH range: red, yellow, green>
yellow

> <BIOSOLVEIT.INTRA_CLASH range: red, yellow, green>
red

> <BIOSOLVEIT.LOGP>
-0.1495

> <BIOSOLVEIT.MOLECULAR WEIGHT>
404.251

> <BIOSOLVEIT.MOLECULE_CHECKSUM>
LTI4LjU3NTM7MS4wOTkwNQ==

> <BIOSOLVEIT.TORSION_QUALITY range: red, yellow, green, not rotatable>
red

> <BIOSOLVEIT.TPSA>
86.37

> <BIOSOLVEIT.SEESAR_FAVORITE>
favorite

> <smc_score>
0.938

> <QED_score>
0.732

> <distance>
0.706

> <SimilarityPheSA_1>
0.649

> <Smiles>
O=C(Cn1nnnc1CN1CCOCC1)NCc1cc(Cl)c(Cl)cc1F

> <Similarity_SkelSpheres>
0.574

> <Cluster No>
451.0

> <QueryID>
JAN-GHE-5a013bed-2

> <SimilarityPheSA>
0.6491

> <Postera series>
3-aminopyridine-like

> <PDB_code>
Mpro-x10466

> <Approach>
DGM_exploratory_RL

> <ID>
20210628_947

> <SimilarityPheSA_2>
0.664

> <OPTIBRIUM.logD>
-0.269118

> <OPTIBRIUM.BBB category>
-

> <OPTIBRIUM.logP>
1.36368

> <OPTIBRIUM.P-gp category>
yes

> <OPTIBRIUM.logS>
3.43185

> <OPTIBRIUM.HIA category>
-

> <OPTIBRIUM.PPB90 category>
low

> <OPTIBRIUM.2D6 affinity category>
low

> <OPTIBRIUM.hERG pIC50>
5.13977

> <OPTIBRIUM.2C9 pKi>
4.68636

> <OPTIBRIUM.BBB log([brain]:[blood])>
-0.437916

> <OPTIBRIUM.logS @ pH7.4>
3.23591

$$$$
Compound 555_1_08
haSeeSAR  07122111353D 1   1.00000     0.00000     0
SeeSAR 11.0.2 hazemaj
 53 57  0  0  0  0            999 V2000
    9.3645    2.1425   31.5400 Cl  0  0  0  0  0  0  0  0  0  0  0  0
    8.7733    1.9218   29.8770 C   0  0  0  0  0  0  0  0  0  0  0  0
    7.8610    2.8226   29.3453 C   0  0  0  0  0  0  0  0  0  0  0  0
    9.2401    0.8453   29.1306 C   0  0  0  0  0  0  0  0  0  0  0  0
    7.2850    4.1988   30.3150 Cl  0  0  0  0  0  0  0  0  0  0  0  0
    7.3879    2.6637   28.0450 C   0  0  0  0  0  0  0  0  0  0  0  0
    8.7811    0.7198   27.8236 C   0  0  0  0  0  0  0  0  0  0  0  0
    7.8626    1.6118   27.2805 C   0  0  0  0  0  0  0  0  0  0  0  0
    9.3284   -0.4203   26.9845 C   0  0  0  0  0  0  0  0  0  0  0  0
    7.3935    1.4464   25.8483 C   0  0  0  0  0  0  0  0  0  0  0  0
    9.6760    0.2430   25.6667 C   0  0  2  0  0  0  0  0  0  0  0  0
    8.5745    1.0390   24.9689 C   0  0  0  0  0  0  0  0  0  0  0  0
   10.0713   -0.8592   24.6964 C   0  0  0  0  0  0  0  0  0  0  0  0
   10.2576   -0.2692   23.3081 C   0  0  0  0  0  0  0  0  0  0  0  0
    9.0415   -0.4899   22.5153 N   0  0  0  0  0  0  0  0  0  0  0  0
    8.6180    0.2850   21.4378 C   0  0  0  0  0  0  0  0  0  0  0  0
    8.0652   -1.5571   22.7811 C   0  0  0  0  0  0  0  0  0  0  0  0
    9.1796    1.2976   21.0308 O   0  0  0  0  0  0  0  0  0  0  0  0
    7.4641   -0.2690   20.8947 N   0  0  0  0  0  0  0  0  0  0  0  0
    7.1416   -1.5242   21.5758 C   0  0  0  0  0  0  0  0  0  0  0  0
    6.7293    0.2764   19.8336 C   0  0  0  0  0  0  0  0  0  0  0  0
    5.5433    0.9822   20.0242 C   0  0  0  0  0  0  0  0  0  0  0  0
    7.2073    0.1036   18.5391 C   0  0  0  0  0  0  0  0  0  0  0  0
    4.8607    1.4987   18.9274 C   0  0  0  0  0  0  0  0  0  0  0  0
    5.0104    1.1897   21.2941 C   0  0  0  0  0  0  0  0  0  0  0  0
    6.5360    0.6091   17.4936 N   0  0  0  0  0  0  0  0  0  0  0  0
    5.3924    1.2907   17.6591 C   0  0  0  0  0  0  0  0  0  0  0  0
    3.6737    2.2064   19.0883 C   0  0  0  0  0  0  0  0  0  0  0  0
    3.8261    1.8939   21.4834 C   0  0  0  0  0  0  0  0  0  0  0  0
    3.1650    2.3983   20.3684 C   0  0  0  0  0  0  0  0  0  0  0  0
    9.8827    0.1851   29.5195 H   0  0  0  0  0  0  0  0  0  0  0  0
    6.7147    3.3005   27.6691 H   0  0  0  0  0  0  0  0  0  0  0  0
    8.6379   -1.1319   26.8550 H   0  0  0  0  0  0  0  0  0  0  0  0
   10.1415   -0.8181   27.4095 H   0  0  0  0  0  0  0  0  0  0  0  0
    7.0159    2.3119   25.5192 H   0  0  0  0  0  0  0  0  0  0  0  0
    6.6883    0.7384   25.8083 H   0  0  0  0  0  0  0  0  0  0  0  0
   10.4637    0.8426   25.8081 H   0  0  0  0  0  0  0  0  0  0  0  0
    8.9848    1.8729   24.5997 H   0  0  0  0  0  0  0  0  0  0  0  0
    8.2207    0.4810   24.2183 H   0  0  0  0  0  0  0  0  0  0  0  0
    9.3523   -1.5536   24.6698 H   0  0  0  0  0  0  0  0  0  0  0  0
   10.9279   -1.2777   24.9985 H   0  0  0  0  0  0  0  0  0  0  0  0
   11.0334   -0.7125   22.8589 H   0  0  0  0  0  0  0  0  0  0  0  0
   10.4326    0.7124   23.3837 H   0  0  0  0  0  0  0  0  0  0  0  0
    7.5572   -1.3718   23.6223 H   0  0  0  0  0  0  0  0  0  0  0  0
    8.5205   -2.4442   22.8552 H   0  0  0  0  0  0  0  0  0  0  0  0
    6.1843   -1.5329   21.8646 H   0  0  0  0  0  0  0  0  0  0  0  0
    7.3161   -2.3055   20.9765 H   0  0  0  0  0  0  0  0  0  0  0  0
    8.0572   -0.4008   18.3866 H   0  0  0  0  0  0  0  0  0  0  0  0
    5.4917    0.8230   22.0903 H   0  0  0  0  0  0  0  0  0  0  0  0
    4.9152    1.6544   16.8590 H   0  0  0  0  0  0  0  0  0  0  0  0
    3.1918    2.5730   18.2924 H   0  0  0  0  0  0  0  0  0  0  0  0
    3.4574    2.0348   22.4022 H   0  0  0  0  0  0  0  0  0  0  0  0
    2.3119    2.9060   20.4889 H   0  0  0  0  0  0  0  0  0  0  0  0
  1  2  1  0  0  0  0
  2  3  2  0  0  0  0
  2  4  1  0  0  0  0
  3  5  1  0  0  0  0
  3  6  1  0  0  0  0
  4  7  2  0  0  0  0
  6  8  2  0  0  0  0
  7  9  1  0  0  0  0
  8 10  1  0  0  0  0
  9 11  1  0  0  0  0
 10 12  1  0  0  0  0
 11 13  1  0  0  0  0
 13 14  1  0  0  0  0
 14 15  1  0  0  0  0
 15 16  1  0  0  0  0
 15 17  1  0  0  0  0
 16 18  2  0  0  0  0
 16 19  1  0  0  0  0
 17 20  1  0  0  0  0
 19 21  1  0  0  0  0
 21 22  1  0  0  0  0
 21 23  2  0  0  0  0
 22 24  1  0  0  0  0
 22 25  2  0  0  0  0
 23 26  1  0  0  0  0
 24 27  1  0  0  0  0
 24 28  2  0  0  0  0
 25 29  1  0  0  0  0
 28 30  1  0  0  0  0
  7  8  1  0  0  0  0
 11 12  1  0  0  0  0
 19 20  1  0  0  0  0
 26 27  2  0  0  0  0
 29 30  2  0  0  0  0
  4 31  1  0  0  0  0
  6 32  1  0  0  0  0
  9 33  1  0  0  0  0
  9 34  1  0  0  0  0
 10 35  1  0  0  0  0
 10 36  1  0  0  0  0
 11 37  1  0  0  0  0
 12 38  1  0  0  0  0
 12 39  1  0  0  0  0
 13 40  1  0  0  0  0
 13 41  1  0  0  0  0
 14 42  1  0  0  0  0
 14 43  1  0  0  0  0
 17 44  1  0  0  0  0
 17 45  1  0  0  0  0
 20 46  1  0  0  0  0
 20 47  1  0  0  0  0
 23 48  1  0  0  0  0
 25 49  1  0  0  0  0
 27 50  1  0  0  0  0
 28 51  1  0  0  0  0
 29 52  1  0  0  0  0
 30 53  1  0  0  0  0
M  END
> <BIOSOLVEIT.HYDE_ESTIMATED_AFFINITY_LOWER_BOUNDARY [nM]>
1189.317959

> <BIOSOLVEIT.HYDE_ESTIMATED_AFFINITY_UPPER_BOUNDARY [nM]>
118165.771053

> <BIOSOLVEIT.HYDE_LIGAND_EFFICIENCY range: ++, +, 0, -, -->
-

> <BIOSOLVEIT.HYDE_LIGAND_LIPOPHILIC_EFFICIENCY range: ++, +, 0, -, -->
--

> <BIOSOLVEIT.INTER_CLASH range: red, yellow, green>
green

> <BIOSOLVEIT.INTRA_CLASH range: red, yellow, green>
green

> <BIOSOLVEIT.LOGP>
5.9788

> <BIOSOLVEIT.MOLECULAR WEIGHT>
440.372

> <BIOSOLVEIT.MOLECULE_CHECKSUM>
LTI4LjExODM7MC45MzcyNzU=

> <BIOSOLVEIT.TORSION_QUALITY range: red, yellow, green, not rotatable>
red

> <BIOSOLVEIT.TPSA>
36.44

> <BIOSOLVEIT.SEESAR_FAVORITE>
favorite

> <smc_score>
0.688

> <QED_score>
0.501

> <distance>
0.529

> <SimilarityPheSA_1>
0.686

> <Smiles>
O=C1N(CCC2CCc3cc(Cl)c(Cl)cc3C2)CCN1c1cncc2ccccc12

> <Similarity_SkelSpheres>
0.763

> <Cluster No>
297.0

> <QueryID>
PET-UNK-c9c1e0d8-3

> <SimilarityPheSA>
0.6862

> <Postera series>
3-aminopyridine-like

> <PDB_code>
Mpro-x12587

> <Approach>
DGM_focussed_RL

> <ID>
20210618_554

> <SimilarityPheSA_2>
0.798

> <OPTIBRIUM.logD>
5.63807

> <OPTIBRIUM.BBB category>
+

> <OPTIBRIUM.logP>
5.63807

> <OPTIBRIUM.P-gp category>
yes

> <OPTIBRIUM.logS>
-0.611183

> <OPTIBRIUM.HIA category>
+

> <OPTIBRIUM.PPB90 category>
high

> <OPTIBRIUM.2D6 affinity category>
medium

> <OPTIBRIUM.hERG pIC50>
6.18332

> <OPTIBRIUM.2C9 pKi>
5.70681

> <OPTIBRIUM.BBB log([brain]:[blood])>
0.0866107

> <OPTIBRIUM.logS @ pH7.4>
-0.611183

$$$$
Compound 555_1_03
haSeeSAR  07122111353D 1   1.00000     0.00000     0
SeeSAR 11.0.2 hazemaj
 53 57  0  0  0  0            999 V2000
    9.3644    2.1420   31.5402 Cl  0  0  0  0  0  0  0  0  0  0  0  0
    8.7733    1.9214   29.8772 C   0  0  0  0  0  0  0  0  0  0  0  0
    7.8610    2.8223   29.3455 C   0  0  0  0  0  0  0  0  0  0  0  0
    9.2399    0.8450   29.1307 C   0  0  0  0  0  0  0  0  0  0  0  0
    7.2850    4.1986   30.3153 Cl  0  0  0  0  0  0  0  0  0  0  0  0
    7.3879    2.6636   28.0453 C   0  0  0  0  0  0  0  0  0  0  0  0
    8.7810    0.7196   27.8237 C   0  0  0  0  0  0  0  0  0  0  0  0
    7.8626    1.6118   27.2807 C   0  0  0  0  0  0  0  0  0  0  0  0
    9.3283   -0.4204   26.9846 C   0  0  0  0  0  0  0  0  0  0  0  0
    7.3936    1.4465   25.8484 C   0  0  0  0  0  0  0  0  0  0  0  0
    9.6760    0.2430   25.6668 C   0  0  2  0  0  0  0  0  0  0  0  0
    8.5747    1.0391   24.9690 C   0  0  0  0  0  0  0  0  0  0  0  0
   10.0713   -0.8592   24.6965 C   0  0  0  0  0  0  0  0  0  0  0  0
   10.2576   -0.2692   23.3082 C   0  0  0  0  0  0  0  0  0  0  0  0
    9.0415   -0.4898   22.5154 N   0  0  0  0  0  0  0  0  0  0  0  0
    8.6180    0.2850   21.4378 C   0  0  0  0  0  0  0  0  0  0  0  0
    8.0650   -1.5569   22.7813 C   0  0  0  0  0  0  0  0  0  0  0  0
    9.1798    1.2976   21.0308 O   0  0  0  0  0  0  0  0  0  0  0  0
    7.4641   -0.2689   20.8948 N   0  0  0  0  0  0  0  0  0  0  0  0
    7.1415   -1.5242   21.5760 C   0  0  0  0  0  0  0  0  0  0  0  0
    6.7292    0.2764   19.8337 C   0  0  0  0  0  0  0  0  0  0  0  0
    5.5432    0.9822   20.0244 C   0  0  0  0  0  0  0  0  0  0  0  0
    7.2074    0.1036   18.5391 C   0  0  0  0  0  0  0  0  0  0  0  0
    4.8607    1.4986   18.9275 C   0  0  0  0  0  0  0  0  0  0  0  0
    5.0104    1.1897   21.2943 C   0  0  0  0  0  0  0  0  0  0  0  0
    6.5359    0.6090   17.4937 N   0  0  0  0  0  0  0  0  0  0  0  0
    5.3923    1.2906   17.6591 C   0  0  0  0  0  0  0  0  0  0  0  0
    3.6737    2.2063   19.0883 C   0  0  0  0  0  0  0  0  0  0  0  0
    3.8261    1.8939   21.4834 C   0  0  0  0  0  0  0  0  0  0  0  0
    3.1650    2.3983   20.3684 C   0  0  0  0  0  0  0  0  0  0  0  0
    9.8825    0.1847   29.5196 H   0  0  0  0  0  0  0  0  0  0  0  0
    6.7149    3.3005   27.6692 H   0  0  0  0  0  0  0  0  0  0  0  0
    8.6378   -1.1320   26.8549 H   0  0  0  0  0  0  0  0  0  0  0  0
   10.1414   -0.8184   27.4096 H   0  0  0  0  0  0  0  0  0  0  0  0
    7.0160    2.3120   25.5194 H   0  0  0  0  0  0  0  0  0  0  0  0
    6.6884    0.7385   25.8084 H   0  0  0  0  0  0  0  0  0  0  0  0
   10.4637    0.8426   25.8083 H   0  0  0  0  0  0  0  0  0  0  0  0
    8.9850    1.8730   24.6000 H   0  0  0  0  0  0  0  0  0  0  0  0
    8.2208    0.4812   24.2183 H   0  0  0  0  0  0  0  0  0  0  0  0
    9.3522   -1.5536   24.6698 H   0  0  0  0  0  0  0  0  0  0  0  0
   10.9278   -1.2778   24.9985 H   0  0  0  0  0  0  0  0  0  0  0  0
   11.0333   -0.7125   22.8590 H   0  0  0  0  0  0  0  0  0  0  0  0
   10.4326    0.7124   23.3839 H   0  0  0  0  0  0  0  0  0  0  0  0
    7.5572   -1.3716   23.6226 H   0  0  0  0  0  0  0  0  0  0  0  0
    8.5204   -2.4442   22.8555 H   0  0  0  0  0  0  0  0  0  0  0  0
    6.1842   -1.5328   21.8649 H   0  0  0  0  0  0  0  0  0  0  0  0
    7.3159   -2.3055   20.9768 H   0  0  0  0  0  0  0  0  0  0  0  0
    8.0572   -0.4009   18.3868 H   0  0  0  0  0  0  0  0  0  0  0  0
    5.4917    0.8231   22.0904 H   0  0  0  0  0  0  0  0  0  0  0  0
    4.9152    1.6543   16.8590 H   0  0  0  0  0  0  0  0  0  0  0  0
    3.1918    2.5728   18.2924 H   0  0  0  0  0  0  0  0  0  0  0  0
    3.4574    2.0347   22.4023 H   0  0  0  0  0  0  0  0  0  0  0  0
    2.3120    2.9061   20.4889 H   0  0  0  0  0  0  0  0  0  0  0  0
  1  2  1  0  0  0  0
  2  3  2  0  0  0  0
  2  4  1  0  0  0  0
  3  5  1  0  0  0  0
  3  6  1  0  0  0  0
  4  7  2  0  0  0  0
  6  8  2  0  0  0  0
  7  9  1  0  0  0  0
  8 10  1  0  0  0  0
  9 11  1  0  0  0  0
 10 12  1  0  0  0  0
 11 13  1  0  0  0  0
 13 14  1  0  0  0  0
 14 15  1  0  0  0  0
 15 16  1  0  0  0  0
 15 17  1  0  0  0  0
 16 18  2  0  0  0  0
 16 19  1  0  0  0  0
 17 20  1  0  0  0  0
 19 21  1  0  0  0  0
 21 22  1  0  0  0  0
 21 23  2  0  0  0  0
 22 24  1  0  0  0  0
 22 25  2  0  0  0  0
 23 26  1  0  0  0  0
 24 27  1  0  0  0  0
 24 28  2  0  0  0  0
 25 29  1  0  0  0  0
 28 30  1  0  0  0  0
  7  8  1  0  0  0  0
 11 12  1  0  0  0  0
 19 20  1  0  0  0  0
 26 27  2  0  0  0  0
 29 30  2  0  0  0  0
  4 31  1  0  0  0  0
  6 32  1  0  0  0  0
  9 33  1  0  0  0  0
  9 34  1  0  0  0  0
 10 35  1  0  0  0  0
 10 36  1  0  0  0  0
 11 37  1  0  0  0  0
 12 38  1  0  0  0  0
 12 39  1  0  0  0  0
 13 40  1  0  0  0  0
 13 41  1  0  0  0  0
 14 42  1  0  0  0  0
 14 43  1  0  0  0  0
 17 44  1  0  0  0  0
 17 45  1  0  0  0  0
 20 46  1  0  0  0  0
 20 47  1  0  0  0  0
 23 48  1  0  0  0  0
 25 49  1  0  0  0  0
 27 50  1  0  0  0  0
 28 51  1  0  0  0  0
 29 52  1  0  0  0  0
 30 53  1  0  0  0  0
M  END
> <BIOSOLVEIT.HYDE_ESTIMATED_AFFINITY_LOWER_BOUNDARY [nM]>
1189.353908

> <BIOSOLVEIT.HYDE_ESTIMATED_AFFINITY_UPPER_BOUNDARY [nM]>
118169.342811

> <BIOSOLVEIT.HYDE_LIGAND_EFFICIENCY range: ++, +, 0, -, -->
-

> <BIOSOLVEIT.HYDE_LIGAND_LIPOPHILIC_EFFICIENCY range: ++, +, 0, -, -->
--

> <BIOSOLVEIT.INTER_CLASH range: red, yellow, green>
green

> <BIOSOLVEIT.INTRA_CLASH range: red, yellow, green>
green

> <BIOSOLVEIT.LOGP>
5.9788

> <BIOSOLVEIT.MOLECULAR WEIGHT>
440.372

> <BIOSOLVEIT.MOLECULE_CHECKSUM>
LTI4LjExODI7MC45MzcyNzM=

> <BIOSOLVEIT.TORSION_QUALITY range: red, yellow, green, not rotatable>
red

> <BIOSOLVEIT.TPSA>
36.44

> <BIOSOLVEIT.SEESAR_FAVORITE>
favorite

> <smc_score>
0.688

> <QED_score>
0.501

> <distance>
0.529

> <SimilarityPheSA_1>
0.686

> <Smiles>
O=C1N(CCC2CCc3cc(Cl)c(Cl)cc3C2)CCN1c1cncc2ccccc12

> <Similarity_SkelSpheres>
0.763

> <Cluster No>
297.0

> <QueryID>
PET-UNK-c9c1e0d8-3

> <SimilarityPheSA>
0.6862

> <Postera series>
3-aminopyridine-like

> <PDB_code>
Mpro-x12587

> <Approach>
DGM_focussed_RL

> <ID>
20210618_554

> <SimilarityPheSA_2>
0.798

> <OPTIBRIUM.logD>
5.63807

> <OPTIBRIUM.BBB category>
+

> <OPTIBRIUM.logP>
5.63807

> <OPTIBRIUM.P-gp category>
yes

> <OPTIBRIUM.logS>
-0.611183

> <OPTIBRIUM.HIA category>
+

> <OPTIBRIUM.PPB90 category>
high

> <OPTIBRIUM.2D6 affinity category>
medium

> <OPTIBRIUM.hERG pIC50>
6.18332

> <OPTIBRIUM.2C9 pKi>
5.70681

> <OPTIBRIUM.BBB log([brain]:[blood])>
0.0866107

> <OPTIBRIUM.logS @ pH7.4>
-0.611183

$$$$
Compound 51_1_1
haSeeSAR  07122111353D 1   1.00000     0.00000     0
SeeSAR 11.0.2 hazemaj
 38 40  0  0  0  0            999 V2000
   13.4994   -1.7393   21.3755 Cl  0  0  0  0  0  0  0  0  0  0  0  0
   12.0443   -0.9615   22.0441 C   0  0  0  0  0  0  0  0  0  0  0  0
   12.1645   -0.0117   23.0529 C   0  0  0  0  0  0  0  0  0  0  0  0
   10.7937   -1.3111   21.5478 C   0  0  0  0  0  0  0  0  0  0  0  0
   13.7773    0.4174   23.6715 Cl  0  0  0  0  0  0  0  0  0  0  0  0
   11.0340    0.6036   23.5814 C   0  0  0  0  0  0  0  0  0  0  0  0
    9.6674   -0.6935   22.0800 C   0  0  0  0  0  0  0  0  0  0  0  0
    9.7802    0.2567   23.0893 C   0  0  0  0  0  0  0  0  0  0  0  0
    8.2923   -1.0630   21.5492 C   0  0  2  0  0  0  0  0  0  0  0  0
    7.6600    0.2053   21.0186 C   0  0  0  0  0  0  0  0  0  0  0  0
    7.3697   -1.3996   22.6999 C   0  0  0  0  0  0  0  0  0  0  0  0
    8.2256    1.0907   20.3957 O   0  0  0  0  0  0  0  0  0  0  0  0
    6.3162    0.1893   21.3796 N   0  0  0  0  0  0  0  0  0  0  0  0
    6.0248   -1.0516   22.0995 C   0  0  0  0  0  0  0  0  0  0  0  0
    5.3438    1.2504   21.0771 C   0  0  1  0  0  0  0  0  0  0  0  0
    5.8611    2.3059   20.1136 C   0  0  0  0  0  0  0  0  0  0  0  0
    4.3341    0.9276   20.0034 C   0  0  0  0  0  0  0  0  0  0  0  0
    5.2902    1.4861   19.0303 N   0  0  0  0  0  0  0  0  0  0  0  0
    5.5615    1.2968   17.6699 C   0  0  0  0  0  0  0  0  0  0  0  0
    5.3822    2.1927   16.8919 O   0  0  0  0  0  0  0  0  0  0  0  0
    6.0110    0.1415   17.2462 O   0  0  0  0  0  0  0  0  0  0  0  0
    6.2997   -0.8923   18.1759 C   0  0  0  0  0  0  0  0  0  0  0  0
   10.7058   -1.9935   20.8222 H   0  0  0  0  0  0  0  0  0  0  0  0
   11.1219    1.2868   24.3062 H   0  0  0  0  0  0  0  0  0  0  0  0
    8.9597    0.6906   23.4613 H   0  0  0  0  0  0  0  0  0  0  0  0
    8.3291   -1.7890   20.8626 H   0  0  0  0  0  0  0  0  0  0  0  0
    7.5681   -0.8415   23.5055 H   0  0  0  0  0  0  0  0  0  0  0  0
    7.4240   -2.3680   22.9435 H   0  0  0  0  0  0  0  0  0  0  0  0
    5.3377   -0.9048   22.8111 H   0  0  0  0  0  0  0  0  0  0  0  0
    5.7106   -1.7672   21.4756 H   0  0  0  0  0  0  0  0  0  0  0  0
    4.9277    1.6425   21.8975 H   0  0  0  0  0  0  0  0  0  0  0  0
    6.8565    2.3984   20.0888 H   0  0  0  0  0  0  0  0  0  0  0  0
    5.4449    3.2091   20.2191 H   0  0  0  0  0  0  0  0  0  0  0  0
    3.4722    1.4292   20.0765 H   0  0  0  0  0  0  0  0  0  0  0  0
    4.1437   -0.0474   19.8889 H   0  0  0  0  0  0  0  0  0  0  0  0
    6.6303   -1.6987   17.6857 H   0  0  0  0  0  0  0  0  0  0  0  0
    7.0023   -0.5793   18.8149 H   0  0  0  0  0  0  0  0  0  0  0  0
    5.4697   -1.1268   18.6819 H   0  0  0  0  0  0  0  0  0  0  0  0
  1  2  1  0  0  0  0
  2  3  2  0  0  0  0
  2  4  1  0  0  0  0
  3  5  1  0  0  0  0
  3  6  1  0  0  0  0
  4  7  2  0  0  0  0
  6  8  2  0  0  0  0
  7  9  1  0  0  0  0
  9 10  1  0  0  0  0
  9 11  1  0  0  0  0
 10 12  2  0  0  0  0
 10 13  1  0  0  0  0
 11 14  1  0  0  0  0
 13 15  1  0  0  0  0
 15 16  1  0  0  0  0
 15 17  1  0  0  0  0
 16 18  1  0  0  0  0
 18 19  1  0  0  0  0
 19 20  2  0  0  0  0
 19 21  1  0  0  0  0
 21 22  1  0  0  0  0
  7  8  1  0  0  0  0
 13 14  1  0  0  0  0
 17 18  1  0  0  0  0
  4 23  1  0  0  0  0
  6 24  1  0  0  0  0
  8 25  1  0  0  0  0
  9 26  1  0  0  0  0
 11 27  1  0  0  0  0
 11 28  1  0  0  0  0
 14 29  1  0  0  0  0
 14 30  1  0  0  0  0
 15 31  1  0  0  0  0
 16 32  1  0  0  0  0
 16 33  1  0  0  0  0
 17 34  1  0  0  0  0
 17 35  1  0  0  0  0
 22 36  1  0  0  0  0
 22 37  1  0  0  0  0
 22 38  1  0  0  0  0
M  END
> <BIOSOLVEIT.HYDE_ESTIMATED_AFFINITY_LOWER_BOUNDARY [nM]>
1342.042024

> <BIOSOLVEIT.HYDE_ESTIMATED_AFFINITY_UPPER_BOUNDARY [nM]>
133339.809899

> <BIOSOLVEIT.HYDE_LIGAND_EFFICIENCY range: ++, +, 0, -, -->
0

> <BIOSOLVEIT.HYDE_LIGAND_LIPOPHILIC_EFFICIENCY range: ++, +, 0, -, -->
-

> <BIOSOLVEIT.INTER_CLASH range: red, yellow, green>
yellow

> <BIOSOLVEIT.INTRA_CLASH range: red, yellow, green>
red

> <BIOSOLVEIT.LOGP>
2.7599

> <BIOSOLVEIT.MOLECULAR WEIGHT>
343.208

> <BIOSOLVEIT.MOLECULE_CHECKSUM>
LTI3LjgxODg7MS4yNjQ0OQ==

> <BIOSOLVEIT.TORSION_QUALITY range: red, yellow, green, not rotatable>
red

> <BIOSOLVEIT.TPSA>
49.85

> <BIOSOLVEIT.SEESAR_FAVORITE>
favorite

> <smc_score>
0.563

> <QED_score>
0.83

> <distance>
0.636

> <SimilarityPheSA_1>
0.662

> <Smiles>
COC(=O)N1CC(N2CCC(c3ccc(Cl)c(Cl)c3)C2=O)C1

> <Similarity_SkelSpheres>
0.63

> <Cluster No>
24.0

> <QueryID>
JAG-UCB-a3ef7265-20

> <SimilarityPheSA>
0.6624

> <Postera series>
3-aminopyridine-like

> <PDB_code>
Mpro-x10324

> <Approach>
DGM_focussed_RL

> <ID>
20210618_50

> <SimilarityPheSA_2>
0.694

> <OPTIBRIUM.logD>
3.01117

> <OPTIBRIUM.BBB category>
-

> <OPTIBRIUM.logP>
3.01117

> <OPTIBRIUM.P-gp category>
no

> <OPTIBRIUM.logS>
2.36606

> <OPTIBRIUM.HIA category>
+

> <OPTIBRIUM.PPB90 category>
low

> <OPTIBRIUM.2D6 affinity category>
medium

> <OPTIBRIUM.hERG pIC50>
4.77382

> <OPTIBRIUM.2C9 pKi>
5.05406

> <OPTIBRIUM.BBB log([brain]:[blood])>
-0.434788

> <OPTIBRIUM.logS @ pH7.4>
2.36606

$$$$
Compound 118_1_02
haSeeSAR  07122111353D 1   1.00000     0.00000     0
SeeSAR 11.0.2 hazemaj
 46 49  0  0  0  0            999 V2000
    6.9155    0.1541   28.7251 Cl  0  0  0  0  0  0  0  0  0  0  0  0
    7.4222    0.5606   27.0675 C   0  0  0  0  0  0  0  0  0  0  0  0
    6.8190    1.6183   26.3954 C   0  0  0  0  0  0  0  0  0  0  0  0
    8.4233   -0.1860   26.4568 C   0  0  0  0  0  0  0  0  0  0  0  0
    5.5390    2.5579   27.1994 Cl  0  0  0  0  0  0  0  0  0  0  0  0
    7.2084    1.9455   25.1003 C   0  0  0  0  0  0  0  0  0  0  0  0
    8.8081    0.1451   25.1624 C   0  0  0  0  0  0  0  0  0  0  0  0
    8.2088    1.2010   24.4842 C   0  0  0  0  0  0  0  0  0  0  0  0
    9.9028   -0.6612   24.4784 C   0  0  1  0  0  0  0  0  0  0  0  0
    9.3962   -2.0524   24.1418 C   0  0  1  0  0  0  0  0  0  0  0  0
   10.1836   -0.0121   23.1398 C   0  0  0  0  0  0  0  0  0  0  0  0
    8.9750   -2.0027   22.6865 C   0  0  0  0  0  0  0  0  0  0  0  0
   10.5196   -3.0712   24.2505 C   0  0  0  0  0  0  0  0  0  0  0  0
    9.1542   -0.6080   22.2836 N   0  0  0  0  0  0  0  0  0  0  0  0
    8.4720    0.0500   21.2548 C   0  0  0  0  0  0  0  0  0  0  0  0
    8.9304    1.0495   20.7743 O   0  0  0  0  0  0  0  0  0  0  0  0
    7.2806   -0.4468   20.7958 N   0  0  0  0  0  0  0  0  0  0  0  0
    6.5973    0.2123   19.7652 C   0  0  0  0  0  0  0  0  0  0  0  0
    5.4313    0.9431   19.9844 C   0  0  0  0  0  0  0  0  0  0  0  0
    7.1096    0.1297   18.4747 C   0  0  0  0  0  0  0  0  0  0  0  0
    4.8129    1.5682   18.9059 C   0  0  0  0  0  0  0  0  0  0  0  0
    4.8622    1.0686   21.2489 C   0  0  0  0  0  0  0  0  0  0  0  0
    6.4912    0.7427   17.4538 N   0  0  0  0  0  0  0  0  0  0  0  0
    5.3672    1.4533   17.6344 C   0  0  0  0  0  0  0  0  0  0  0  0
    3.6474    2.3043   19.0960 C   0  0  0  0  0  0  0  0  0  0  0  0
    3.6980    1.7992   21.4589 C   0  0  0  0  0  0  0  0  0  0  0  0
    3.0962    2.4167   20.3678 C   0  0  0  0  0  0  0  0  0  0  0  0
    8.8582   -0.9465   26.9390 H   0  0  0  0  0  0  0  0  0  0  0  0
    6.7744    2.7066   24.6184 H   0  0  0  0  0  0  0  0  0  0  0  0
    8.4971    1.4251   23.5532 H   0  0  0  0  0  0  0  0  0  0  0  0
   10.7281   -0.7022   25.0416 H   0  0  0  0  0  0  0  0  0  0  0  0
    8.6267   -2.3046   24.7286 H   0  0  0  0  0  0  0  0  0  0  0  0
   11.1015   -0.2374   22.8133 H   0  0  0  0  0  0  0  0  0  0  0  0
   10.0822    0.9814   23.1904 H   0  0  0  0  0  0  0  0  0  0  0  0
    8.0180   -2.2758   22.5888 H   0  0  0  0  0  0  0  0  0  0  0  0
    9.5514   -2.6044   22.1337 H   0  0  0  0  0  0  0  0  0  0  0  0
   10.1683   -3.9800   24.0258 H   0  0  0  0  0  0  0  0  0  0  0  0
   11.2514   -2.8296   23.6132 H   0  0  0  0  0  0  0  0  0  0  0  0
   10.8781   -3.0738   25.1841 H   0  0  0  0  0  0  0  0  0  0  0  0
    6.8987   -1.2797   21.1961 H   0  0  0  0  0  0  0  0  0  0  0  0
    7.9463   -0.3913   18.3062 H   0  0  0  0  0  0  0  0  0  0  0  0
    5.3026    0.6210   22.0271 H   0  0  0  0  0  0  0  0  0  0  0  0
    4.9278    1.9004   16.8552 H   0  0  0  0  0  0  0  0  0  0  0  0
    3.2062    2.7523   18.3184 H   0  0  0  0  0  0  0  0  0  0  0  0
    3.3023    1.8789   22.3739 H   0  0  0  0  0  0  0  0  0  0  0  0
    2.2587    2.9470   20.4992 H   0  0  0  0  0  0  0  0  0  0  0  0
  1  2  1  0  0  0  0
  2  3  2  0  0  0  0
  2  4  1  0  0  0  0
  3  5  1  0  0  0  0
  3  6  1  0  0  0  0
  4  7  2  0  0  0  0
  6  8  2  0  0  0  0
  7  9  1  0  0  0  0
  9 10  1  0  0  0  0
  9 11  1  0  0  0  0
 10 12  1  0  0  0  0
 10 13  1  0  0  0  0
 11 14  1  0  0  0  0
 14 15  1  0  0  0  0
 15 16  2  0  0  0  0
 15 17  1  0  0  0  0
 17 18  1  0  0  0  0
 18 19  1  0  0  0  0
 18 20  2  0  0  0  0
 19 21  1  0  0  0  0
 19 22  2  0  0  0  0
 20 23  1  0  0  0  0
 21 24  1  0  0  0  0
 21 25  2  0  0  0  0
 22 26  1  0  0  0  0
 25 27  1  0  0  0  0
  7  8  1  0  0  0  0
 12 14  1  0  0  0  0
 23 24  2  0  0  0  0
 26 27  2  0  0  0  0
  4 28  1  0  0  0  0
  6 29  1  0  0  0  0
  8 30  1  0  0  0  0
  9 31  1  0  0  0  0
 10 32  1  0  0  0  0
 11 33  1  0  0  0  0
 11 34  1  0  0  0  0
 12 35  1  0  0  0  0
 12 36  1  0  0  0  0
 13 37  1  0  0  0  0
 13 38  1  0  0  0  0
 13 39  1  0  0  0  0
 17 40  1  0  0  0  0
 20 41  1  0  0  0  0
 22 42  1  0  0  0  0
 24 43  1  0  0  0  0
 25 44  1  0  0  0  0
 26 45  1  0  0  0  0
 27 46  1  0  0  0  0
M  END
> <BIOSOLVEIT.HYDE_ESTIMATED_AFFINITY_LOWER_BOUNDARY [nM]>
1357.988491

> <BIOSOLVEIT.HYDE_ESTIMATED_AFFINITY_UPPER_BOUNDARY [nM]>
134924.185685

> <BIOSOLVEIT.HYDE_LIGAND_EFFICIENCY range: ++, +, 0, -, -->
-

> <BIOSOLVEIT.HYDE_LIGAND_LIPOPHILIC_EFFICIENCY range: ++, +, 0, -, -->
--

> <BIOSOLVEIT.INTER_CLASH range: red, yellow, green>
green

> <BIOSOLVEIT.INTRA_CLASH range: red, yellow, green>
green

> <BIOSOLVEIT.LOGP>
5.809

> <BIOSOLVEIT.MOLECULAR WEIGHT>
400.307

> <BIOSOLVEIT.MOLECULE_CHECKSUM>
LTI3Ljc4OTU7MS4wMjkyNA==

> <BIOSOLVEIT.TORSION_QUALITY range: red, yellow, green, not rotatable>
green

> <BIOSOLVEIT.TPSA>
45.23

> <BIOSOLVEIT.SEESAR_FAVORITE>
favorite

> <smc_score>
0.563

> <QED_score>
0.59

> <distance>
0.508

> <SimilarityPheSA_1>
0.655

> <Smiles>
CC1CN(C(=O)Nc2cncc3ccccc23)CC1c1ccc(Cl)c(Cl)c1

> <Similarity_SkelSpheres>
0.876

> <Cluster No>
54.0

> <QueryID>
ALP-POS-6d04362c-1

> <SimilarityPheSA>
0.6553

> <Postera series>
3-aminopyridine-like

> <PDB_code>
Mpro-x12419

> <Approach>
DGM_focussed_RL

> <ID>
20210618_117

> <SimilarityPheSA_2>
0.823

> <OPTIBRIUM.logD>
5.26895

> <OPTIBRIUM.BBB category>
+

> <OPTIBRIUM.logP>
5.26895

> <OPTIBRIUM.P-gp category>
no

> <OPTIBRIUM.logS>
-0.826632

> <OPTIBRIUM.HIA category>
+

> <OPTIBRIUM.PPB90 category>
high

> <OPTIBRIUM.2D6 affinity category>
high

> <OPTIBRIUM.hERG pIC50>
5.6988

> <OPTIBRIUM.2C9 pKi>
5.92936

> <OPTIBRIUM.BBB log([brain]:[blood])>
-0.069391

> <OPTIBRIUM.logS @ pH7.4>
-0.826632

$$$$
Compound 118_1_03
haSeeSAR  07122111353D 1   1.00000     0.00000     0
SeeSAR 11.0.2 hazemaj
 46 49  0  0  0  0            999 V2000
    6.4579    3.2785   24.2520 Cl  0  0  0  0  0  0  0  0  0  0  0  0
    7.2449    1.9337   25.1135 C   0  0  0  0  0  0  0  0  0  0  0  0
    6.8681    1.6270   26.4165 C   0  0  0  0  0  0  0  0  0  0  0  0
    8.2336    1.1969   24.4715 C   0  0  0  0  0  0  0  0  0  0  0  0
    5.6001    2.5865   27.2162 Cl  0  0  0  0  0  0  0  0  0  0  0  0
    7.4755    0.5772   27.0984 C   0  0  0  0  0  0  0  0  0  0  0  0
    8.8375    0.1493   25.1577 C   0  0  0  0  0  0  0  0  0  0  0  0
    8.4661   -0.1626   26.4612 C   0  0  0  0  0  0  0  0  0  0  0  0
    9.9214   -0.6685   24.4703 C   0  0  1  0  0  0  0  0  0  0  0  0
    9.4015   -2.0569   24.1423 C   0  0  1  0  0  0  0  0  0  0  0  0
   10.1994   -0.0270   23.1275 C   0  0  0  0  0  0  0  0  0  0  0  0
    8.9719   -2.0093   22.6893 C   0  0  0  0  0  0  0  0  0  0  0  0
   10.5172   -3.0843   24.2481 C   0  0  0  0  0  0  0  0  0  0  0  0
    9.1601   -0.6177   22.2798 N   0  0  0  0  0  0  0  0  0  0  0  0
    8.4770    0.0418   21.2526 C   0  0  0  0  0  0  0  0  0  0  0  0
    8.9356    1.0413   20.7724 O   0  0  0  0  0  0  0  0  0  0  0  0
    7.2845   -0.4534   20.7948 N   0  0  0  0  0  0  0  0  0  0  0  0
    6.6003    0.2072   19.7657 C   0  0  0  0  0  0  0  0  0  0  0  0
    5.4359    0.9398   19.9874 C   0  0  0  0  0  0  0  0  0  0  0  0
    7.1101    0.1243   18.4743 C   0  0  0  0  0  0  0  0  0  0  0  0
    4.8166    1.5664   18.9103 C   0  0  0  0  0  0  0  0  0  0  0  0
    4.8694    1.0656   21.2530 C   0  0  0  0  0  0  0  0  0  0  0  0
    6.4909    0.7388   17.4548 N   0  0  0  0  0  0  0  0  0  0  0  0
    5.3683    1.4511   17.6378 C   0  0  0  0  0  0  0  0  0  0  0  0
    3.6526    2.3043   19.1029 C   0  0  0  0  0  0  0  0  0  0  0  0
    3.7067    1.7981   21.4655 C   0  0  0  0  0  0  0  0  0  0  0  0
    3.1040    2.4169   20.3758 C   0  0  0  0  0  0  0  0  0  0  0  0
    8.5052    1.4160   23.5344 H   0  0  0  0  0  0  0  0  0  0  0  0
    7.2031    0.3573   28.0351 H   0  0  0  0  0  0  0  0  0  0  0  0
    8.9113   -0.9190   26.9404 H   0  0  0  0  0  0  0  0  0  0  0  0
   10.7498   -0.7141   25.0286 H   0  0  0  0  0  0  0  0  0  0  0  0
    8.6335   -2.3005   24.7346 H   0  0  0  0  0  0  0  0  0  0  0  0
   11.1134   -0.2610   22.7964 H   0  0  0  0  0  0  0  0  0  0  0  0
   10.1064    0.9676   23.1748 H   0  0  0  0  0  0  0  0  0  0  0  0
    8.0121   -2.2750   22.5984 H   0  0  0  0  0  0  0  0  0  0  0  0
    9.5401   -2.6178   22.1354 H   0  0  0  0  0  0  0  0  0  0  0  0
   10.1571   -3.9912   24.0292 H   0  0  0  0  0  0  0  0  0  0  0  0
   11.2470   -2.8512   23.6055 H   0  0  0  0  0  0  0  0  0  0  0  0
   10.8812   -3.0863   25.1796 H   0  0  0  0  0  0  0  0  0  0  0  0
    6.9024   -1.2864   21.1949 H   0  0  0  0  0  0  0  0  0  0  0  0
    7.9457   -0.3979   18.3040 H   0  0  0  0  0  0  0  0  0  0  0  0
    5.3105    0.6170   22.0302 H   0  0  0  0  0  0  0  0  0  0  0  0
    4.9283    1.8993   16.8596 H   0  0  0  0  0  0  0  0  0  0  0  0
    3.2107    2.7533   18.3263 H   0  0  0  0  0  0  0  0  0  0  0  0
    3.3129    1.8779   22.3813 H   0  0  0  0  0  0  0  0  0  0  0  0
    2.2675    2.9486   20.5089 H   0  0  0  0  0  0  0  0  0  0  0  0
  1  2  1  0  0  0  0
  2  3  2  0  0  0  0
  2  4  1  0  0  0  0
  3  5  1  0  0  0  0
  3  6  1  0  0  0  0
  4  7  2  0  0  0  0
  6  8  2  0  0  0  0
  7  9  1  0  0  0  0
  9 10  1  0  0  0  0
  9 11  1  0  0  0  0
 10 12  1  0  0  0  0
 10 13  1  0  0  0  0
 11 14  1  0  0  0  0
 14 15  1  0  0  0  0
 15 16  2  0  0  0  0
 15 17  1  0  0  0  0
 17 18  1  0  0  0  0
 18 19  1  0  0  0  0
 18 20  2  0  0  0  0
 19 21  1  0  0  0  0
 19 22  2  0  0  0  0
 20 23  1  0  0  0  0
 21 24  1  0  0  0  0
 21 25  2  0  0  0  0
 22 26  1  0  0  0  0
 25 27  1  0  0  0  0
  7  8  1  0  0  0  0
 12 14  1  0  0  0  0
 23 24  2  0  0  0  0
 26 27  2  0  0  0  0
  4 28  1  0  0  0  0
  6 29  1  0  0  0  0
  8 30  1  0  0  0  0
  9 31  1  0  0  0  0
 10 32  1  0  0  0  0
 11 33  1  0  0  0  0
 11 34  1  0  0  0  0
 12 35  1  0  0  0  0
 12 36  1  0  0  0  0
 13 37  1  0  0  0  0
 13 38  1  0  0  0  0
 13 39  1  0  0  0  0
 17 40  1  0  0  0  0
 20 41  1  0  0  0  0
 22 42  1  0  0  0  0
 24 43  1  0  0  0  0
 25 44  1  0  0  0  0
 26 45  1  0  0  0  0
 27 46  1  0  0  0  0
M  END
> <BIOSOLVEIT.HYDE_ESTIMATED_AFFINITY_LOWER_BOUNDARY [nM]>
1385.988165

> <BIOSOLVEIT.HYDE_ESTIMATED_AFFINITY_UPPER_BOUNDARY [nM]>
137706.118851

> <BIOSOLVEIT.HYDE_LIGAND_EFFICIENCY range: ++, +, 0, -, -->
-

> <BIOSOLVEIT.HYDE_LIGAND_LIPOPHILIC_EFFICIENCY range: ++, +, 0, -, -->
--

> <BIOSOLVEIT.INTER_CLASH range: red, yellow, green>
green

> <BIOSOLVEIT.INTRA_CLASH range: red, yellow, green>
green

> <BIOSOLVEIT.LOGP>
5.809

> <BIOSOLVEIT.MOLECULAR WEIGHT>
400.307

> <BIOSOLVEIT.MOLECULE_CHECKSUM>
LTI3LjczODk7MS4wMjczNw==

> <BIOSOLVEIT.TORSION_QUALITY range: red, yellow, green, not rotatable>
green

> <BIOSOLVEIT.TPSA>
45.23

> <BIOSOLVEIT.SEESAR_FAVORITE>
favorite

> <smc_score>
0.563

> <QED_score>
0.59

> <distance>
0.508

> <SimilarityPheSA_1>
0.655

> <Smiles>
CC1CN(C(=O)Nc2cncc3ccccc23)CC1c1ccc(Cl)c(Cl)c1

> <Similarity_SkelSpheres>
0.876

> <Cluster No>
54.0

> <QueryID>
ALP-POS-6d04362c-1

> <SimilarityPheSA>
0.6553

> <Postera series>
3-aminopyridine-like

> <PDB_code>
Mpro-x12419

> <Approach>
DGM_focussed_RL

> <ID>
20210618_117

> <SimilarityPheSA_2>
0.823

> <OPTIBRIUM.logD>
5.26895

> <OPTIBRIUM.BBB category>
+

> <OPTIBRIUM.logP>
5.26895

> <OPTIBRIUM.P-gp category>
no

> <OPTIBRIUM.logS>
-0.826632

> <OPTIBRIUM.HIA category>
+

> <OPTIBRIUM.PPB90 category>
high

> <OPTIBRIUM.2D6 affinity category>
high

> <OPTIBRIUM.hERG pIC50>
5.6988

> <OPTIBRIUM.2C9 pKi>
5.92936

> <OPTIBRIUM.BBB log([brain]:[blood])>
-0.069391

> <OPTIBRIUM.logS @ pH7.4>
-0.826632

$$$$
Compound 114_1_08
haSeeSAR  07122111353D 1   1.00000     0.00000     0
SeeSAR 11.0.2 hazemaj
 44 47  0  0  0  0            999 V2000
    9.3500   -4.1262   26.0496 Cl  0  0  0  0  0  0  0  0  0  0  0  0
    8.8528   -2.4168   26.1136 C   0  0  0  0  0  0  0  0  0  0  0  0
    8.3173   -1.9265   27.2994 C   0  0  0  0  0  0  0  0  0  0  0  0
    8.9774   -1.5470   25.0335 C   0  0  0  0  0  0  0  0  0  0  0  0
    8.1404   -3.0205   28.6929 Cl  0  0  0  0  0  0  0  0  0  0  0  0
    7.9178   -0.5990   27.4097 C   0  0  0  0  0  0  0  0  0  0  0  0
    8.5725   -0.2124   25.1158 C   0  0  0  0  0  0  0  0  0  0  0  0
    9.5734   -2.1013   23.7508 C   0  0  2  0  0  0  0  0  0  0  0  0
    8.0495    0.2485   26.3167 C   0  0  0  0  0  0  0  0  0  0  0  0
    8.6236    0.8107   23.9897 C   0  0  0  0  0  0  0  0  0  0  0  0
   10.1892   -0.8845   23.0845 C   0  0  0  0  0  0  0  0  0  0  0  0
    8.5590   -2.8110   22.8651 C   0  0  0  0  0  0  0  0  0  0  0  0
    9.1057    0.0664   22.8237 N   0  0  0  0  0  0  0  0  0  0  0  0
    8.5709    0.2669   21.5435 C   0  0  0  0  0  0  0  0  0  0  0  0
    9.0117    1.1649   20.8260 O   0  0  0  0  0  0  0  0  0  0  0  0
    7.4467   -0.6244   21.0413 C   0  0  0  0  0  0  0  0  0  0  0  0
    6.7198    0.0707   19.8997 C   0  0  0  0  0  0  0  0  0  0  0  0
    5.5661    0.8309   20.0872 C   0  0  0  0  0  0  0  0  0  0  0  0
    7.2381   -0.0647   18.6154 C   0  0  0  0  0  0  0  0  0  0  0  0
    4.9586    1.4356   18.9912 C   0  0  0  0  0  0  0  0  0  0  0  0
    4.9902    1.0103   21.3434 C   0  0  0  0  0  0  0  0  0  0  0  0
    6.6359    0.5275   17.5734 N   0  0  0  0  0  0  0  0  0  0  0  0
    5.5254    1.2627   17.7325 C   0  0  0  0  0  0  0  0  0  0  0  0
    3.8073    2.1996   19.1500 C   0  0  0  0  0  0  0  0  0  0  0  0
    3.8393    1.7697   21.5251 C   0  0  0  0  0  0  0  0  0  0  0  0
    3.2509    2.3649   20.4139 C   0  0  0  0  0  0  0  0  0  0  0  0
    7.5386   -0.2570   28.2694 H   0  0  0  0  0  0  0  0  0  0  0  0
   10.3026   -2.7443   23.9853 H   0  0  0  0  0  0  0  0  0  0  0  0
    7.7637    1.2036   26.3960 H   0  0  0  0  0  0  0  0  0  0  0  0
    9.2533    1.5534   24.2177 H   0  0  0  0  0  0  0  0  0  0  0  0
    7.7137    1.1870   23.8150 H   0  0  0  0  0  0  0  0  0  0  0  0
   10.6257   -1.1497   22.2247 H   0  0  0  0  0  0  0  0  0  0  0  0
   10.8691   -0.4705   23.6898 H   0  0  0  0  0  0  0  0  0  0  0  0
    9.0144   -3.1500   22.0420 H   0  0  0  0  0  0  0  0  0  0  0  0
    8.1595   -3.5792   23.3654 H   0  0  0  0  0  0  0  0  0  0  0  0
    7.8363   -2.1700   22.6063 H   0  0  0  0  0  0  0  0  0  0  0  0
    6.8041   -0.8022   21.7865 H   0  0  0  0  0  0  0  0  0  0  0  0
    7.8276   -1.4900   20.7160 H   0  0  0  0  0  0  0  0  0  0  0  0
    8.0651   -0.6073   18.4684 H   0  0  0  0  0  0  0  0  0  0  0  0
    5.4174    0.5797   22.1384 H   0  0  0  0  0  0  0  0  0  0  0  0
    5.0992    1.6920   16.9361 H   0  0  0  0  0  0  0  0  0  0  0  0
    3.3796    2.6303   18.3553 H   0  0  0  0  0  0  0  0  0  0  0  0
    3.4430    1.8855   22.4359 H   0  0  0  0  0  0  0  0  0  0  0  0
    2.4229    2.9147   20.5246 H   0  0  0  0  0  0  0  0  0  0  0  0
  1  2  1  0  0  0  0
  2  3  2  0  0  0  0
  2  4  1  0  0  0  0
  3  5  1  0  0  0  0
  3  6  1  0  0  0  0
  4  7  2  0  0  0  0
  4  8  1  0  0  0  0
  6  9  2  0  0  0  0
  7 10  1  0  0  0  0
  8 11  1  0  0  0  0
  8 12  1  0  0  0  0
 10 13  1  0  0  0  0
 13 14  1  0  0  0  0
 14 15  2  0  0  0  0
 14 16  1  0  0  0  0
 16 17  1  0  0  0  0
 17 18  1  0  0  0  0
 17 19  2  0  0  0  0
 18 20  1  0  0  0  0
 18 21  2  0  0  0  0
 19 22  1  0  0  0  0
 20 23  1  0  0  0  0
 20 24  2  0  0  0  0
 21 25  1  0  0  0  0
 24 26  1  0  0  0  0
  7  9  1  0  0  0  0
 11 13  1  0  0  0  0
 22 23  2  0  0  0  0
 25 26  2  0  0  0  0
  6 27  1  0  0  0  0
  8 28  1  0  0  0  0
  9 29  1  0  0  0  0
 10 30  1  0  0  0  0
 10 31  1  0  0  0  0
 11 32  1  0  0  0  0
 11 33  1  0  0  0  0
 12 34  1  0  0  0  0
 12 35  1  0  0  0  0
 12 36  1  0  0  0  0
 16 37  1  0  0  0  0
 16 38  1  0  0  0  0
 19 39  1  0  0  0  0
 21 40  1  0  0  0  0
 23 41  1  0  0  0  0
 24 42  1  0  0  0  0
 25 43  1  0  0  0  0
 26 44  1  0  0  0  0
M  END
> <BIOSOLVEIT.HYDE_ESTIMATED_AFFINITY_LOWER_BOUNDARY [nM]>
1447.952238

> <BIOSOLVEIT.HYDE_ESTIMATED_AFFINITY_UPPER_BOUNDARY [nM]>
143862.615777

> <BIOSOLVEIT.HYDE_LIGAND_EFFICIENCY range: ++, +, 0, -, -->
-

> <BIOSOLVEIT.HYDE_LIGAND_LIPOPHILIC_EFFICIENCY range: ++, +, 0, -, -->
--

> <BIOSOLVEIT.INTER_CLASH range: red, yellow, green>
green

> <BIOSOLVEIT.INTRA_CLASH range: red, yellow, green>
green

> <BIOSOLVEIT.LOGP>
5.23

> <BIOSOLVEIT.MOLECULAR WEIGHT>
385.292

> <BIOSOLVEIT.MOLECULE_CHECKSUM>
LTI3LjYzMDU7MS4wNjI3MQ==

> <BIOSOLVEIT.TORSION_QUALITY range: red, yellow, green, not rotatable>
yellow

> <BIOSOLVEIT.TPSA>
33.2

> <BIOSOLVEIT.SEESAR_FAVORITE>
favorite

> <smc_score>
0.938

> <QED_score>
0.605

> <distance>
0.586

> <SimilarityPheSA_1>
0.647

> <Smiles>
CC1CN(C(=O)Cc2cncc3ccccc23)Cc2ccc(Cl)c(Cl)c21

> <Similarity_SkelSpheres>
0.781

> <Cluster No>
53.0

> <QueryID>
PET-UNK-1901c25b-1

> <SimilarityPheSA>
0.6473

> <Postera series>
3-aminopyridine-like

> <PDB_code>
Mpro-x11790

> <Approach>
DGM_focussed_RL

> <ID>
20210618_113

> <SimilarityPheSA_2>
0.8

> <OPTIBRIUM.logD>
4.40624

> <OPTIBRIUM.BBB category>
+

> <OPTIBRIUM.logP>
4.40624

> <OPTIBRIUM.P-gp category>
no

> <OPTIBRIUM.logS>
0.321175

> <OPTIBRIUM.HIA category>
+

> <OPTIBRIUM.PPB90 category>
high

> <OPTIBRIUM.2D6 affinity category>
medium

> <OPTIBRIUM.hERG pIC50>
5.38808

> <OPTIBRIUM.2C9 pKi>
5.86156

> <OPTIBRIUM.BBB log([brain]:[blood])>
-0.366431

> <OPTIBRIUM.logS @ pH7.4>
0.321175

$$$$
Compound 723_1_06
haSeeSAR  07122111353D 1   1.00000     0.00000     0
SeeSAR 11.0.2 hazemaj
 36 39  0  0  0  0            999 V2000
    6.5638    1.6086   23.7383 Cl  0  0  0  0  0  0  0  0  0  0  0  0
    7.3509    0.1797   24.4487 C   0  0  0  0  0  0  0  0  0  0  0  0
    8.2697   -0.5908   23.7410 C   0  0  0  0  0  0  0  0  0  0  0  0
    7.0099   -0.1259   25.7607 C   0  0  0  0  0  0  0  0  0  0  0  0
    8.7828   -0.5223   22.4457 N   0  0  0  0  0  0  0  0  0  0  0  0
    8.8142   -1.6843   24.3867 C   0  0  0  0  0  0  0  0  0  0  0  0
    7.5886   -1.2219   26.3913 C   0  0  0  0  0  0  0  0  0  0  0  0
    8.2292    0.1259   21.3275 C   0  0  0  0  0  0  0  0  0  0  0  0
   10.0284   -1.2877   22.4036 C   0  0  0  0  0  0  0  0  0  0  0  0
    8.5048   -2.0119   25.7041 C   0  0  0  0  0  0  0  0  0  0  0  0
    9.7257   -2.3791   23.4083 C   0  0  0  0  0  0  0  0  0  0  0  0
    8.8092    1.0448   20.8186 O   0  0  0  0  0  0  0  0  0  0  0  0
    7.0275   -0.2918   20.8191 N   0  0  0  0  0  0  0  0  0  0  0  0
    9.2580   -3.4177   26.4932 Cl  0  0  0  0  0  0  0  0  0  0  0  0
    6.4757    0.3543   19.7047 C   0  0  0  0  0  0  0  0  0  0  0  0
    5.2726    1.0499   19.8467 C   0  0  0  0  0  0  0  0  0  0  0  0
    7.0937    0.2958   18.4594 C   0  0  0  0  0  0  0  0  0  0  0  0
    4.7522    1.6938   18.7545 C   0  0  0  0  0  0  0  0  0  0  0  0
    4.3338    1.3113   21.0146 C   0  0  0  0  0  0  0  0  0  0  0  0
    6.5366    0.9186   17.4084 N   0  0  0  0  0  0  0  0  0  0  0  0
    3.5399    2.3882   19.1290 C   0  0  0  0  0  0  0  0  0  0  0  0
    5.3951    1.6127   17.5231 C   0  0  0  0  0  0  0  0  0  0  0  0
    3.2812    2.1796   20.4813 N   0  0  0  0  0  0  0  0  0  0  0  0
    2.8272    3.0513   18.3906 O   0  0  0  0  0  0  0  0  0  0  0  0
    6.3487    0.4419   26.2510 H   0  0  0  0  0  0  0  0  0  0  0  0
    7.3469   -1.4416   27.3365 H   0  0  0  0  0  0  0  0  0  0  0  0
   10.8107   -0.7332   22.6873 H   0  0  0  0  0  0  0  0  0  0  0  0
   10.1988   -1.6633   21.4926 H   0  0  0  0  0  0  0  0  0  0  0  0
    9.2650   -3.1525   22.9729 H   0  0  0  0  0  0  0  0  0  0  0  0
   10.5606   -2.6979   23.8570 H   0  0  0  0  0  0  0  0  0  0  0  0
    6.5442   -1.0576   21.2432 H   0  0  0  0  0  0  0  0  0  0  0  0
    7.9500   -0.2085   18.3476 H   0  0  0  0  0  0  0  0  0  0  0  0
    4.8206    1.7684   21.7591 H   0  0  0  0  0  0  0  0  0  0  0  0
    3.9437    0.4533   21.3487 H   0  0  0  0  0  0  0  0  0  0  0  0
    5.0061    2.0716   16.7244 H   0  0  0  0  0  0  0  0  0  0  0  0
    3.0116    3.0766   17.4081 H   0  0  0  0  0  0  0  0  0  0  0  0
  1  2  1  0  0  0  0
  2  3  2  0  0  0  0
  2  4  1  0  0  0  0
  3  5  1  0  0  0  0
  3  6  1  0  0  0  0
  4  7  2  0  0  0  0
  5  8  1  0  0  0  0
  5  9  1  0  0  0  0
  6 10  2  0  0  0  0
  6 11  1  0  0  0  0
  8 12  2  0  0  0  0
  8 13  1  0  0  0  0
 10 14  1  0  0  0  0
 13 15  1  0  0  0  0
 15 16  2  0  0  0  0
 15 17  1  0  0  0  0
 16 18  1  0  0  0  0
 16 19  1  0  0  0  0
 17 20  2  0  0  0  0
 18 21  1  0  0  0  0
 18 22  2  0  0  0  0
 19 23  1  0  0  0  0
 21 24  1  0  0  0  0
  7 10  1  0  0  0  0
  9 11  1  0  0  0  0
 20 22  1  0  0  0  0
 21 23  2  0  0  0  0
  4 25  1  0  0  0  0
  7 26  1  0  0  0  0
  9 27  1  0  0  0  0
  9 28  1  0  0  0  0
 11 29  1  0  0  0  0
 11 30  1  0  0  0  0
 13 31  1  0  0  0  0
 17 32  1  0  0  0  0
 19 33  1  0  0  0  0
 19 34  1  0  0  0  0
 22 35  1  0  0  0  0
 24 36  1  0  0  0  0
M  END
> <BIOSOLVEIT.HYDE_ESTIMATED_AFFINITY_LOWER_BOUNDARY [nM]>
1535.489718

> <BIOSOLVEIT.HYDE_ESTIMATED_AFFINITY_UPPER_BOUNDARY [nM]>
152559.981981

> <BIOSOLVEIT.HYDE_LIGAND_EFFICIENCY range: ++, +, 0, -, -->
-

> <BIOSOLVEIT.HYDE_LIGAND_LIPOPHILIC_EFFICIENCY range: ++, +, 0, -, -->
--

> <BIOSOLVEIT.INTER_CLASH range: red, yellow, green>
green

> <BIOSOLVEIT.INTRA_CLASH range: red, yellow, green>
green

> <BIOSOLVEIT.LOGP>
3.8012

> <BIOSOLVEIT.MOLECULAR WEIGHT>
363.203

> <BIOSOLVEIT.MOLECULE_CHECKSUM>
LTI3LjQ4NTsxLjE0NTIx

> <BIOSOLVEIT.TORSION_QUALITY range: red, yellow, green, not rotatable>
yellow

> <BIOSOLVEIT.TPSA>
77.82

> <BIOSOLVEIT.SEESAR_FAVORITE>
favorite

> <smc_score>
0.75

> <QED_score>
0.817

> <distance>
0.685

> <SimilarityPheSA_1>
0.671

> <Smiles>
O=C1NCc2c(NC(=O)N3CCc4c(Cl)ccc(Cl)c43)cncc21

> <Similarity_SkelSpheres>
0.633

> <Cluster No>
412.0

> <QueryID>
ALP-POS-ce760d3f-2

> <SimilarityPheSA>
0.6708

> <Postera series>
3-aminopyridine-like

> <PDB_code>
Mpro-x12659

> <Approach>
DGM_focussed_RL

> <ID>
20210618_722

> <SimilarityPheSA_2>
0.761

> <OPTIBRIUM.logD>
2.25628

> <OPTIBRIUM.BBB category>
-

> <OPTIBRIUM.logP>
2.25628

> <OPTIBRIUM.P-gp category>
no

> <OPTIBRIUM.logS>
1.27111

> <OPTIBRIUM.HIA category>
+

> <OPTIBRIUM.PPB90 category>
high

> <OPTIBRIUM.2D6 affinity category>
medium

> <OPTIBRIUM.hERG pIC50>
4.67445

> <OPTIBRIUM.2C9 pKi>
5.60181

> <OPTIBRIUM.BBB log([brain]:[blood])>
0.329193

> <OPTIBRIUM.logS @ pH7.4>
1.27111

$$$$
Compound 723_1_09
haSeeSAR  07122111353D 1   1.00000     0.00000     0
SeeSAR 11.0.2 hazemaj
 36 39  0  0  0  0            999 V2000
    6.5237    1.5521   23.7321 Cl  0  0  0  0  0  0  0  0  0  0  0  0
    7.3264    0.1281   24.4350 C   0  0  0  0  0  0  0  0  0  0  0  0
    8.2624   -0.6215   23.7276 C   0  0  0  0  0  0  0  0  0  0  0  0
    6.9791   -0.1955   25.7411 C   0  0  0  0  0  0  0  0  0  0  0  0
    8.7851   -0.5326   22.4374 N   0  0  0  0  0  0  0  0  0  0  0  0
    8.8180   -1.7130   24.3672 C   0  0  0  0  0  0  0  0  0  0  0  0
    7.5692   -1.2888   26.3659 C   0  0  0  0  0  0  0  0  0  0  0  0
    8.2310    0.1183   21.3210 C   0  0  0  0  0  0  0  0  0  0  0  0
   10.0423   -1.2788   22.3983 C   0  0  0  0  0  0  0  0  0  0  0  0
    8.5027   -2.0581   25.6787 C   0  0  0  0  0  0  0  0  0  0  0  0
    9.7478   -2.3844   23.3898 C   0  0  0  0  0  0  0  0  0  0  0  0
    8.8112    1.0380   20.8135 O   0  0  0  0  0  0  0  0  0  0  0  0
    7.0287   -0.2977   20.8126 N   0  0  0  0  0  0  0  0  0  0  0  0
    9.2705   -3.4602   26.4604 Cl  0  0  0  0  0  0  0  0  0  0  0  0
    6.4765    0.3510   19.6999 C   0  0  0  0  0  0  0  0  0  0  0  0
    5.2736    1.0464   19.8441 C   0  0  0  0  0  0  0  0  0  0  0  0
    7.0939    0.2954   18.4542 C   0  0  0  0  0  0  0  0  0  0  0  0
    4.7528    1.6929   18.7536 C   0  0  0  0  0  0  0  0  0  0  0  0
    4.3353    1.3053   21.0131 C   0  0  0  0  0  0  0  0  0  0  0  0
    6.5364    0.9205   17.4049 N   0  0  0  0  0  0  0  0  0  0  0  0
    3.5406    2.3867   19.1303 C   0  0  0  0  0  0  0  0  0  0  0  0
    5.3950    1.6145   17.5217 C   0  0  0  0  0  0  0  0  0  0  0  0
    3.2825    2.1748   20.4822 N   0  0  0  0  0  0  0  0  0  0  0  0
    2.8278    3.0514   18.3937 O   0  0  0  0  0  0  0  0  0  0  0  0
    6.3055    0.3575   26.2313 H   0  0  0  0  0  0  0  0  0  0  0  0
    7.3230   -1.5214   27.3068 H   0  0  0  0  0  0  0  0  0  0  0  0
   10.8139   -0.7154   22.6940 H   0  0  0  0  0  0  0  0  0  0  0  0
   10.2260   -1.6427   21.4852 H   0  0  0  0  0  0  0  0  0  0  0  0
    9.3025   -3.1603   22.9430 H   0  0  0  0  0  0  0  0  0  0  0  0
   10.5837   -2.6951   23.8423 H   0  0  0  0  0  0  0  0  0  0  0  0
    6.5453   -1.0641   21.2354 H   0  0  0  0  0  0  0  0  0  0  0  0
    7.9501   -0.2087   18.3408 H   0  0  0  0  0  0  0  0  0  0  0  0
    4.8224    1.7605   21.7584 H   0  0  0  0  0  0  0  0  0  0  0  0
    3.9453    0.4466   21.3454 H   0  0  0  0  0  0  0  0  0  0  0  0
    5.0057    2.0753   16.7242 H   0  0  0  0  0  0  0  0  0  0  0  0
    3.0108    3.0778   17.4110 H   0  0  0  0  0  0  0  0  0  0  0  0
  1  2  1  0  0  0  0
  2  3  2  0  0  0  0
  2  4  1  0  0  0  0
  3  5  1  0  0  0  0
  3  6  1  0  0  0  0
  4  7  2  0  0  0  0
  5  8  1  0  0  0  0
  5  9  1  0  0  0  0
  6 10  2  0  0  0  0
  6 11  1  0  0  0  0
  8 12  2  0  0  0  0
  8 13  1  0  0  0  0
 10 14  1  0  0  0  0
 13 15  1  0  0  0  0
 15 16  2  0  0  0  0
 15 17  1  0  0  0  0
 16 18  1  0  0  0  0
 16 19  1  0  0  0  0
 17 20  2  0  0  0  0
 18 21  1  0  0  0  0
 18 22  2  0  0  0  0
 19 23  1  0  0  0  0
 21 24  1  0  0  0  0
  7 10  1  0  0  0  0
  9 11  1  0  0  0  0
 20 22  1  0  0  0  0
 21 23  2  0  0  0  0
  4 25  1  0  0  0  0
  7 26  1  0  0  0  0
  9 27  1  0  0  0  0
  9 28  1  0  0  0  0
 11 29  1  0  0  0  0
 11 30  1  0  0  0  0
 13 31  1  0  0  0  0
 17 32  1  0  0  0  0
 19 33  1  0  0  0  0
 19 34  1  0  0  0  0
 22 35  1  0  0  0  0
 24 36  1  0  0  0  0
M  END
> <BIOSOLVEIT.HYDE_ESTIMATED_AFFINITY_LOWER_BOUNDARY [nM]>
1553.744083

> <BIOSOLVEIT.HYDE_ESTIMATED_AFFINITY_UPPER_BOUNDARY [nM]>
154373.661154

> <BIOSOLVEIT.HYDE_LIGAND_EFFICIENCY range: ++, +, 0, -, -->
-

> <BIOSOLVEIT.HYDE_LIGAND_LIPOPHILIC_EFFICIENCY range: ++, +, 0, -, -->
--

> <BIOSOLVEIT.INTER_CLASH range: red, yellow, green>
green

> <BIOSOLVEIT.INTRA_CLASH range: red, yellow, green>
green

> <BIOSOLVEIT.LOGP>
3.8012

> <BIOSOLVEIT.MOLECULAR WEIGHT>
363.203

> <BIOSOLVEIT.MOLECULE_CHECKSUM>
LTI3LjQ1NTc7MS4xNDM5OQ==

> <BIOSOLVEIT.TORSION_QUALITY range: red, yellow, green, not rotatable>
yellow

> <BIOSOLVEIT.TPSA>
77.82

> <BIOSOLVEIT.SEESAR_FAVORITE>
favorite

> <smc_score>
0.75

> <QED_score>
0.817

> <distance>
0.685

> <SimilarityPheSA_1>
0.671

> <Smiles>
O=C1NCc2c(NC(=O)N3CCc4c(Cl)ccc(Cl)c43)cncc21

> <Similarity_SkelSpheres>
0.633

> <Cluster No>
412.0

> <QueryID>
ALP-POS-ce760d3f-2

> <SimilarityPheSA>
0.6708

> <Postera series>
3-aminopyridine-like

> <PDB_code>
Mpro-x12659

> <Approach>
DGM_focussed_RL

> <ID>
20210618_722

> <SimilarityPheSA_2>
0.761

> <OPTIBRIUM.logD>
2.25628

> <OPTIBRIUM.BBB category>
-

> <OPTIBRIUM.logP>
2.25628

> <OPTIBRIUM.P-gp category>
no

> <OPTIBRIUM.logS>
1.27111

> <OPTIBRIUM.HIA category>
+

> <OPTIBRIUM.PPB90 category>
high

> <OPTIBRIUM.2D6 affinity category>
medium

> <OPTIBRIUM.hERG pIC50>
4.67445

> <OPTIBRIUM.2C9 pKi>
5.60181

> <OPTIBRIUM.BBB log([brain]:[blood])>
0.329193

> <OPTIBRIUM.logS @ pH7.4>
1.27111

$$$$
Compound 539_1_08
haSeeSAR  07122111353D 1   1.00000     0.00000     0
SeeSAR 11.0.2 hazemaj
 38 41  0  0  0  0            999 V2000
   11.4261    2.1603   22.7407 Cl  0  0  0  0  0  0  0  0  0  0  0  0
   10.9761    0.4388   22.7873 C   0  0  0  0  0  0  0  0  0  0  0  0
   11.9701   -0.5309   22.7151 C   0  0  0  0  0  0  0  0  0  0  0  0
    9.6515    0.0255   22.8929 C   0  0  0  0  0  0  0  0  0  0  0  0
   13.6845   -0.0711   22.5778 Cl  0  0  0  0  0  0  0  0  0  0  0  0
   11.5949   -1.8700   22.7537 C   0  0  0  0  0  0  0  0  0  0  0  0
    9.2501   -1.2827   22.9355 C   0  0  0  0  0  0  0  0  0  0  0  0
    8.4136    0.8912   22.9822 C   0  0  1  0  0  0  0  0  0  0  0  0
   10.2592   -2.2382   22.8636 C   0  0  0  0  0  0  0  0  0  0  0  0
    7.9047   -1.3542   23.0468 O   0  0  0  0  0  0  0  0  0  0  0  0
    7.9134    1.3169   21.6115 C   0  0  0  0  0  0  0  0  0  0  0  0
    7.4898   -0.1275   23.6171 C   0  0  0  0  0  0  0  0  0  0  0  0
    8.6329    1.9930   20.8764 O   0  0  0  0  0  0  0  0  0  0  0  0
    6.7045    0.9609   21.2086 N   0  0  0  0  0  0  0  0  0  0  0  0
    6.4492    0.7686   19.8449 C   0  0  0  0  0  0  0  0  0  0  0  0
    5.2500    0.9155   19.2216 N   0  0  0  0  0  0  0  0  0  0  0  0
    7.3647    0.3971   18.9085 C   0  0  0  0  0  0  0  0  0  0  0  0
    5.4330    0.6320   17.9008 C   0  0  0  0  0  0  0  0  0  0  0  0
    3.9828    1.3088   19.8539 C   0  0  0  0  0  0  0  0  0  0  0  0
    6.6985    0.3226   17.7218 N   0  0  0  0  0  0  0  0  0  0  0  0
    3.7228    2.7843   19.5932 C   0  0  0  0  0  0  0  0  0  0  0  0
    2.6158    3.2975   20.4670 C   0  0  0  0  0  0  0  0  0  0  0  0
    2.3611    3.0326   19.0109 C   0  0  0  0  0  0  0  0  0  0  0  0
   12.2978   -2.5794   22.7015 H   0  0  0  0  0  0  0  0  0  0  0  0
    8.5587    1.6788   23.5810 H   0  0  0  0  0  0  0  0  0  0  0  0
   10.0187   -3.2083   22.8915 H   0  0  0  0  0  0  0  0  0  0  0  0
    6.5352    0.0666   23.3910 H   0  0  0  0  0  0  0  0  0  0  0  0
    7.6011   -0.1399   24.6108 H   0  0  0  0  0  0  0  0  0  0  0  0
    5.9731    0.8291   21.8776 H   0  0  0  0  0  0  0  0  0  0  0  0
    8.3359    0.2145   19.0613 H   0  0  0  0  0  0  0  0  0  0  0  0
    4.7280    0.6553   17.1919 H   0  0  0  0  0  0  0  0  0  0  0  0
    4.0385    1.1493   20.8395 H   0  0  0  0  0  0  0  0  0  0  0  0
    3.2360    0.7659   19.4699 H   0  0  0  0  0  0  0  0  0  0  0  0
    4.4833    3.3867   19.3509 H   0  0  0  0  0  0  0  0  0  0  0  0
    2.6421    4.2376   20.8071 H   0  0  0  0  0  0  0  0  0  0  0  0
    2.2108    2.7030   21.1617 H   0  0  0  0  0  0  0  0  0  0  0  0
    1.7867    2.2616   18.7358 H   0  0  0  0  0  0  0  0  0  0  0  0
    2.2181    3.7961   18.3812 H   0  0  0  0  0  0  0  0  0  0  0  0
  1  2  1  0  0  0  0
  2  3  2  0  0  0  0
  2  4  1  0  0  0  0
  3  5  1  0  0  0  0
  3  6  1  0  0  0  0
  4  7  2  0  0  0  0
  4  8  1  0  0  0  0
  6  9  2  0  0  0  0
  7 10  1  0  0  0  0
  8 11  1  0  0  0  0
  8 12  1  0  0  0  0
 11 13  2  0  0  0  0
 11 14  1  0  0  0  0
 14 15  1  0  0  0  0
 15 16  1  0  0  0  0
 15 17  2  0  0  0  0
 16 18  1  0  0  0  0
 16 19  1  0  0  0  0
 17 20  1  0  0  0  0
 19 21  1  0  0  0  0
 21 22  1  0  0  0  0
 21 23  1  0  0  0  0
  7  9  1  0  0  0  0
 10 12  1  0  0  0  0
 18 20  2  0  0  0  0
 22 23  1  0  0  0  0
  6 24  1  0  0  0  0
  8 25  1  0  0  0  0
  9 26  1  0  0  0  0
 12 27  1  0  0  0  0
 12 28  1  0  0  0  0
 14 29  1  0  0  0  0
 17 30  1  0  0  0  0
 18 31  1  0  0  0  0
 19 32  1  0  0  0  0
 19 33  1  0  0  0  0
 21 34  1  0  0  0  0
 22 35  1  0  0  0  0
 22 36  1  0  0  0  0
 23 37  1  0  0  0  0
 23 38  1  0  0  0  0
M  END
> <BIOSOLVEIT.HYDE_ESTIMATED_AFFINITY_LOWER_BOUNDARY [nM]>
1617.532610

> <BIOSOLVEIT.HYDE_ESTIMATED_AFFINITY_UPPER_BOUNDARY [nM]>
160711.428449

> <BIOSOLVEIT.HYDE_LIGAND_EFFICIENCY range: ++, +, 0, -, -->
-

> <BIOSOLVEIT.HYDE_LIGAND_LIPOPHILIC_EFFICIENCY range: ++, +, 0, -, -->
--

> <BIOSOLVEIT.INTER_CLASH range: red, yellow, green>
green

> <BIOSOLVEIT.INTRA_CLASH range: red, yellow, green>
yellow

> <BIOSOLVEIT.LOGP>
3.7146

> <BIOSOLVEIT.MOLECULAR WEIGHT>
352.22

> <BIOSOLVEIT.MOLECULE_CHECKSUM>
LTI3LjM1NTk7MS4xODkzOQ==

> <BIOSOLVEIT.TORSION_QUALITY range: red, yellow, green, not rotatable>
green

> <BIOSOLVEIT.TPSA>
56.15

> <BIOSOLVEIT.SEESAR_FAVORITE>
favorite

> <smc_score>
0.688

> <QED_score>
0.913

> <distance>
0.622

> <SimilarityPheSA_1>
0.726

> <Smiles>
O=C(Nc1cncn1CC1CC1)C1COc2ccc(Cl)c(Cl)c21

> <Similarity_SkelSpheres>
0.607

> <Cluster No>
288.0

> <QueryID>
JAG-UCB-a3ef7265-20

> <SimilarityPheSA>
0.7258

> <Postera series>
3-aminopyridine-like

> <PDB_code>
Mpro-x10324

> <Approach>
DGM_focussed_RL

> <ID>
20210618_538

> <SimilarityPheSA_2>
0.841

> <OPTIBRIUM.logD>
3.84148

> <OPTIBRIUM.BBB category>
-

> <OPTIBRIUM.logP>
3.84148

> <OPTIBRIUM.P-gp category>
no

> <OPTIBRIUM.logS>
1.56688

> <OPTIBRIUM.HIA category>
+

> <OPTIBRIUM.PPB90 category>
high

> <OPTIBRIUM.2D6 affinity category>
high

> <OPTIBRIUM.hERG pIC50>
4.88554

> <OPTIBRIUM.2C9 pKi>
5.21785

> <OPTIBRIUM.BBB log([brain]:[blood])>
-0.045877

> <OPTIBRIUM.logS @ pH7.4>
1.56688

$$$$
Compound 904_1_1
haSeeSAR  07122111353D 1   1.00000     0.00000     0
SeeSAR 11.0.2 hazemaj
 42 43  0  0  0  0            999 V2000
    0.7925    2.8096   20.2410 Cl  0  0  0  0  0  0  0  0  0  0  0  0
    2.3385    2.4079   21.0252 C   0  0  0  0  0  0  0  0  0  0  0  0
    2.4650    2.5113   22.4058 C   0  0  0  0  0  0  0  0  0  0  0  0
    3.4138    1.9918   20.2481 C   0  0  0  0  0  0  0  0  0  0  0  0
    1.4260    2.9102   23.1338 F   0  0  0  0  0  0  0  0  0  0  0  0
    3.6684    2.2014   23.0306 C   0  0  0  0  0  0  0  0  0  0  0  0
    4.6147    1.6827   20.8766 C   0  0  0  0  0  0  0  0  0  0  0  0
    4.7469    1.7847   22.2577 C   0  0  0  0  0  0  0  0  0  0  0  0
    5.7975    1.2254   20.0394 C   0  0  1  0  0  0  0  0  0  0  0  0
    6.6157    0.2855   20.8191 N   0  0  0  0  0  0  0  0  0  0  0  0
    5.2921    0.5352   18.7828 C   0  0  0  0  0  0  0  0  0  0  0  0
    7.7985    0.6609   21.2776 C   0  0  0  0  0  0  0  0  0  0  0  0
    6.1195   -1.0716   21.0896 C   0  0  0  0  0  0  0  0  0  0  0  0
    5.9000    1.2017   17.5594 C   0  0  0  0  0  0  0  0  0  0  0  0
    8.5035    1.4203   20.6129 O   0  0  0  0  0  0  0  0  0  0  0  0
    8.2872    0.1546   22.6250 C   0  0  0  0  0  0  0  0  0  0  0  0
    7.3042    0.9904   17.5538 O   0  0  0  0  0  0  0  0  0  0  0  0
    9.8038    0.0558   22.6094 C   0  0  0  0  0  0  0  0  0  0  0  0
   10.4215   -1.0905   22.1209 C   0  0  0  0  0  0  0  0  0  0  0  0
   10.5596    1.1202   23.0879 C   0  0  0  0  0  0  0  0  0  0  0  0
    9.6806   -2.0979   21.6674 F   0  0  0  0  0  0  0  0  0  0  0  0
   11.8079   -1.1925   22.1033 C   0  0  0  0  0  0  0  0  0  0  0  0
   11.9463    1.0174   23.0687 C   0  0  0  0  0  0  0  0  0  0  0  0
   12.5649   -0.1285   22.5811 C   0  0  0  0  0  0  0  0  0  0  0  0
   12.6900    2.0232   23.5202 F   0  0  0  0  0  0  0  0  0  0  0  0
   13.8920   -0.2144   22.5687 F   0  0  0  0  0  0  0  0  0  0  0  0
    3.3250    1.9163   19.2548 H   0  0  0  0  0  0  0  0  0  0  0  0
    3.7571    2.2773   24.0237 H   0  0  0  0  0  0  0  0  0  0  0  0
    5.6175    1.5583   22.6947 H   0  0  0  0  0  0  0  0  0  0  0  0
    6.3517    2.0178   19.7845 H   0  0  0  0  0  0  0  0  0  0  0  0
    4.2956    0.6070   18.7409 H   0  0  0  0  0  0  0  0  0  0  0  0
    5.5564   -0.4290   18.8029 H   0  0  0  0  0  0  0  0  0  0  0  0
    6.7966   -1.5728   21.6284 H   0  0  0  0  0  0  0  0  0  0  0  0
    5.2614   -1.0172   21.6002 H   0  0  0  0  0  0  0  0  0  0  0  0
    5.9631   -1.5479   20.2244 H   0  0  0  0  0  0  0  0  0  0  0  0
    5.7109    2.1834   17.5860 H   0  0  0  0  0  0  0  0  0  0  0  0
    5.5003    0.8075   16.7319 H   0  0  0  0  0  0  0  0  0  0  0  0
    7.8961   -0.7483   22.8035 H   0  0  0  0  0  0  0  0  0  0  0  0
    8.0018    0.7895   23.3429 H   0  0  0  0  0  0  0  0  0  0  0  0
    7.5198    0.1989   16.9819 H   0  0  0  0  0  0  0  0  0  0  0  0
   10.1145    1.9439   23.4393 H   0  0  0  0  0  0  0  0  0  0  0  0
   12.2531   -2.0166   21.7532 H   0  0  0  0  0  0  0  0  0  0  0  0
  1  2  1  0  0  0  0
  2  3  2  0  0  0  0
  2  4  1  0  0  0  0
  3  5  1  0  0  0  0
  3  6  1  0  0  0  0
  4  7  2  0  0  0  0
  6  8  2  0  0  0  0
  7  9  1  0  0  0  0
  9 10  1  0  0  0  0
  9 11  1  0  0  0  0
 10 12  1  0  0  0  0
 10 13  1  0  0  0  0
 11 14  1  0  0  0  0
 12 15  2  0  0  0  0
 12 16  1  0  0  0  0
 14 17  1  0  0  0  0
 16 18  1  0  0  0  0
 18 19  2  0  0  0  0
 18 20  1  0  0  0  0
 19 21  1  0  0  0  0
 19 22  1  0  0  0  0
 20 23  2  0  0  0  0
 22 24  2  0  0  0  0
 23 25  1  0  0  0  0
 24 26  1  0  0  0  0
  7  8  1  0  0  0  0
 23 24  1  0  0  0  0
  4 27  1  0  0  0  0
  6 28  1  0  0  0  0
  8 29  1  0  0  0  0
  9 30  1  0  0  0  0
 11 31  1  0  0  0  0
 11 32  1  0  0  0  0
 13 33  1  0  0  0  0
 13 34  1  0  0  0  0
 13 35  1  0  0  0  0
 14 36  1  0  0  0  0
 14 37  1  0  0  0  0
 16 38  1  0  0  0  0
 16 39  1  0  0  0  0
 17 40  1  0  0  0  0
 20 41  1  0  0  0  0
 22 42  1  0  0  0  0
M  END
> <BIOSOLVEIT.HYDE_ESTIMATED_AFFINITY_LOWER_BOUNDARY [nM]>
1868.035853

> <BIOSOLVEIT.HYDE_ESTIMATED_AFFINITY_UPPER_BOUNDARY [nM]>
185600.406666

> <BIOSOLVEIT.HYDE_LIGAND_EFFICIENCY range: ++, +, 0, -, -->
-

> <BIOSOLVEIT.HYDE_LIGAND_LIPOPHILIC_EFFICIENCY range: ++, +, 0, -, -->
--

> <BIOSOLVEIT.INTER_CLASH range: red, yellow, green>
green

> <BIOSOLVEIT.INTRA_CLASH range: red, yellow, green>
green

> <BIOSOLVEIT.LOGP>
4.021

> <BIOSOLVEIT.MOLECULAR WEIGHT>
389.774

> <BIOSOLVEIT.MOLECULE_CHECKSUM>
LTI2Ljk5OTsxLjAzODQy

> <BIOSOLVEIT.TORSION_QUALITY range: red, yellow, green, not rotatable>
yellow

> <BIOSOLVEIT.TPSA>
40.54

> <BIOSOLVEIT.SEESAR_FAVORITE>
favorite

> <smc_score>
1.0

> <QED_score>
0.599

> <distance>
0.727

> <SimilarityPheSA_1>
0.65

> <Smiles>
CN(C(=O)Cc1cc(F)c(F)cc1F)C(CCO)c1ccc(F)c(Cl)c1

> <Similarity_SkelSpheres>
0.619

> <Cluster No>
72.0

> <QueryID>
MAT-POS-bb423b95-1

> <SimilarityPheSA>
0.6502

> <Postera series>
3-aminopyridine-like

> <PDB_code>
Mpro-x11542

> <Approach>
DGM_exploratory_RL

> <ID>
20210628_174

> <SimilarityPheSA_2>
0.74

> <OPTIBRIUM.logD>
3.32134

> <OPTIBRIUM.BBB category>
+

> <OPTIBRIUM.logP>
3.32134

> <OPTIBRIUM.P-gp category>
no

> <OPTIBRIUM.logS>
0.518705

> <OPTIBRIUM.HIA category>
+

> <OPTIBRIUM.PPB90 category>
high

> <OPTIBRIUM.2D6 affinity category>
high

> <OPTIBRIUM.hERG pIC50>
6.1904

> <OPTIBRIUM.2C9 pKi>
5.68501

> <OPTIBRIUM.BBB log([brain]:[blood])>
-0.176922

> <OPTIBRIUM.logS @ pH7.4>
0.518705

$$$$
Compound 539_1_09
haSeeSAR  07122111353D 1   1.00000     0.00000     0
SeeSAR 11.0.2 hazemaj
 38 41  0  0  0  0            999 V2000
   11.3321    2.1568   22.7720 Cl  0  0  0  0  0  0  0  0  0  0  0  0
   10.8968    0.4310   22.7838 C   0  0  0  0  0  0  0  0  0  0  0  0
   11.9002   -0.5288   22.7093 C   0  0  0  0  0  0  0  0  0  0  0  0
    9.5745    0.0047   22.8642 C   0  0  0  0  0  0  0  0  0  0  0  0
   13.6122   -0.0520   22.6034 Cl  0  0  0  0  0  0  0  0  0  0  0  0
   11.5362   -1.8715   22.7204 C   0  0  0  0  0  0  0  0  0  0  0  0
    9.1841   -1.3076   22.8794 C   0  0  0  0  0  0  0  0  0  0  0  0
    8.3279    0.8580   22.9506 C   0  0  1  0  0  0  0  0  0  0  0  0
   10.2025   -2.2529   22.8057 C   0  0  0  0  0  0  0  0  0  0  0  0
    7.8380   -1.3924   22.9709 O   0  0  0  0  0  0  0  0  0  0  0  0
    7.8427    1.3022   21.5804 C   0  0  0  0  0  0  0  0  0  0  0  0
    7.4045   -0.1791   23.5556 C   0  0  0  0  0  0  0  0  0  0  0  0
    8.5680    1.9932   20.8650 O   0  0  0  0  0  0  0  0  0  0  0  0
    6.6410    0.9464   21.1568 N   0  0  0  0  0  0  0  0  0  0  0  0
    6.4039    0.7738   19.7871 C   0  0  0  0  0  0  0  0  0  0  0  0
    5.2496    1.0580   19.1276 N   0  0  0  0  0  0  0  0  0  0  0  0
    7.2948    0.2868   18.8804 C   0  0  0  0  0  0  0  0  0  0  0  0
    5.4353    0.7427   17.8144 C   0  0  0  0  0  0  0  0  0  0  0  0
    4.0211    1.6063   19.7197 C   0  0  0  0  0  0  0  0  0  0  0  0
    6.6591    0.2821   17.6748 N   0  0  0  0  0  0  0  0  0  0  0  0
    4.3643    2.8252   20.5615 C   0  0  0  0  0  0  0  0  0  0  0  0
    3.8048    2.6959   21.9481 C   0  0  0  0  0  0  0  0  0  0  0  0
    3.1472    3.6113   20.9556 C   0  0  0  0  0  0  0  0  0  0  0  0
   12.2461   -2.5738   22.6662 H   0  0  0  0  0  0  0  0  0  0  0  0
    8.4578    1.6367   23.5644 H   0  0  0  0  0  0  0  0  0  0  0  0
    9.9702   -3.2255   22.8141 H   0  0  0  0  0  0  0  0  0  0  0  0
    6.4514    0.0105   23.3196 H   0  0  0  0  0  0  0  0  0  0  0  0
    7.5022   -0.2072   24.5504 H   0  0  0  0  0  0  0  0  0  0  0  0
    5.9018    0.8006   21.8143 H   0  0  0  0  0  0  0  0  0  0  0  0
    8.2322   -0.0096   19.0630 H   0  0  0  0  0  0  0  0  0  0  0  0
    4.7589    0.8441   17.0847 H   0  0  0  0  0  0  0  0  0  0  0  0
    3.5913    0.9124   20.2976 H   0  0  0  0  0  0  0  0  0  0  0  0
    3.3894    1.8713   18.9913 H   0  0  0  0  0  0  0  0  0  0  0  0
    5.2349    3.2966   20.4199 H   0  0  0  0  0  0  0  0  0  0  0  0
    4.3037    3.0775   22.7262 H   0  0  0  0  0  0  0  0  0  0  0  0
    3.3493    1.8502   22.2264 H   0  0  0  0  0  0  0  0  0  0  0  0
    2.2539    3.3753   20.5731 H   0  0  0  0  0  0  0  0  0  0  0  0
    3.2082    4.6025   21.0728 H   0  0  0  0  0  0  0  0  0  0  0  0
  1  2  1  0  0  0  0
  2  3  2  0  0  0  0
  2  4  1  0  0  0  0
  3  5  1  0  0  0  0
  3  6  1  0  0  0  0
  4  7  2  0  0  0  0
  4  8  1  0  0  0  0
  6  9  2  0  0  0  0
  7 10  1  0  0  0  0
  8 11  1  0  0  0  0
  8 12  1  0  0  0  0
 11 13  2  0  0  0  0
 11 14  1  0  0  0  0
 14 15  1  0  0  0  0
 15 16  1  0  0  0  0
 15 17  2  0  0  0  0
 16 18  1  0  0  0  0
 16 19  1  0  0  0  0
 17 20  1  0  0  0  0
 19 21  1  0  0  0  0
 21 22  1  0  0  0  0
 21 23  1  0  0  0  0
  7  9  1  0  0  0  0
 10 12  1  0  0  0  0
 18 20  2  0  0  0  0
 22 23  1  0  0  0  0
  6 24  1  0  0  0  0
  8 25  1  0  0  0  0
  9 26  1  0  0  0  0
 12 27  1  0  0  0  0
 12 28  1  0  0  0  0
 14 29  1  0  0  0  0
 17 30  1  0  0  0  0
 18 31  1  0  0  0  0
 19 32  1  0  0  0  0
 19 33  1  0  0  0  0
 21 34  1  0  0  0  0
 22 35  1  0  0  0  0
 22 36  1  0  0  0  0
 23 37  1  0  0  0  0
 23 38  1  0  0  0  0
M  END
> <BIOSOLVEIT.HYDE_ESTIMATED_AFFINITY_LOWER_BOUNDARY [nM]>
1930.414483

> <BIOSOLVEIT.HYDE_ESTIMATED_AFFINITY_UPPER_BOUNDARY [nM]>
191798.092376

> <BIOSOLVEIT.HYDE_LIGAND_EFFICIENCY range: ++, +, 0, -, -->
-

> <BIOSOLVEIT.HYDE_LIGAND_LIPOPHILIC_EFFICIENCY range: ++, +, 0, -, -->
--

> <BIOSOLVEIT.INTER_CLASH range: red, yellow, green>
green

> <BIOSOLVEIT.INTRA_CLASH range: red, yellow, green>
green

> <BIOSOLVEIT.LOGP>
3.7146

> <BIOSOLVEIT.MOLECULAR WEIGHT>
352.22

> <BIOSOLVEIT.MOLECULE_CHECKSUM>
LTI2LjkxNzY7MS4xNzAzMw==

> <BIOSOLVEIT.TORSION_QUALITY range: red, yellow, green, not rotatable>
red

> <BIOSOLVEIT.TPSA>
56.15

> <BIOSOLVEIT.SEESAR_FAVORITE>
favorite

> <smc_score>
0.688

> <QED_score>
0.913

> <distance>
0.622

> <SimilarityPheSA_1>
0.726

> <Smiles>
O=C(Nc1cncn1CC1CC1)C1COc2ccc(Cl)c(Cl)c21

> <Similarity_SkelSpheres>
0.607

> <Cluster No>
288.0

> <QueryID>
JAG-UCB-a3ef7265-20

> <SimilarityPheSA>
0.7258

> <Postera series>
3-aminopyridine-like

> <PDB_code>
Mpro-x10324

> <Approach>
DGM_focussed_RL

> <ID>
20210618_538

> <SimilarityPheSA_2>
0.841

> <OPTIBRIUM.logD>
3.84148

> <OPTIBRIUM.BBB category>
-

> <OPTIBRIUM.logP>
3.84148

> <OPTIBRIUM.P-gp category>
no

> <OPTIBRIUM.logS>
1.56688

> <OPTIBRIUM.HIA category>
+

> <OPTIBRIUM.PPB90 category>
high

> <OPTIBRIUM.2D6 affinity category>
high

> <OPTIBRIUM.hERG pIC50>
4.88554

> <OPTIBRIUM.2C9 pKi>
5.21785

> <OPTIBRIUM.BBB log([brain]:[blood])>
-0.045877

> <OPTIBRIUM.logS @ pH7.4>
1.56688

$$$$
Compound 539_1_10
haSeeSAR  07122111353D 1   1.00000     0.00000     0
SeeSAR 11.0.2 hazemaj
 38 41  0  0  0  0            999 V2000
   11.3322    2.1569   22.7720 Cl  0  0  0  0  0  0  0  0  0  0  0  0
   10.8968    0.4311   22.7837 C   0  0  0  0  0  0  0  0  0  0  0  0
   11.9002   -0.5288   22.7093 C   0  0  0  0  0  0  0  0  0  0  0  0
    9.5746    0.0047   22.8642 C   0  0  0  0  0  0  0  0  0  0  0  0
   13.6122   -0.0520   22.6034 Cl  0  0  0  0  0  0  0  0  0  0  0  0
   11.5363   -1.8715   22.7204 C   0  0  0  0  0  0  0  0  0  0  0  0
    9.1842   -1.3075   22.8795 C   0  0  0  0  0  0  0  0  0  0  0  0
    8.3279    0.8580   22.9506 C   0  0  1  0  0  0  0  0  0  0  0  0
   10.2026   -2.2529   22.8057 C   0  0  0  0  0  0  0  0  0  0  0  0
    7.8381   -1.3924   22.9709 O   0  0  0  0  0  0  0  0  0  0  0  0
    7.8428    1.3023   21.5804 C   0  0  0  0  0  0  0  0  0  0  0  0
    7.4046   -0.1790   23.5556 C   0  0  0  0  0  0  0  0  0  0  0  0
    8.5680    1.9933   20.8650 O   0  0  0  0  0  0  0  0  0  0  0  0
    6.6410    0.9464   21.1568 N   0  0  0  0  0  0  0  0  0  0  0  0
    6.4040    0.7738   19.7871 C   0  0  0  0  0  0  0  0  0  0  0  0
    5.2497    1.0580   19.1276 N   0  0  0  0  0  0  0  0  0  0  0  0
    7.2948    0.2867   18.8804 C   0  0  0  0  0  0  0  0  0  0  0  0
    5.4353    0.7427   17.8144 C   0  0  0  0  0  0  0  0  0  0  0  0
    4.0212    1.6063   19.7197 C   0  0  0  0  0  0  0  0  0  0  0  0
    6.6591    0.2820   17.6749 N   0  0  0  0  0  0  0  0  0  0  0  0
    4.3646    2.8253   20.5615 C   0  0  0  0  0  0  0  0  0  0  0  0
    3.8050    2.6958   21.9481 C   0  0  0  0  0  0  0  0  0  0  0  0
    3.1473    3.6113   20.9558 C   0  0  0  0  0  0  0  0  0  0  0  0
   12.2462   -2.5738   22.6662 H   0  0  0  0  0  0  0  0  0  0  0  0
    8.4579    1.6368   23.5644 H   0  0  0  0  0  0  0  0  0  0  0  0
    9.9703   -3.2255   22.8141 H   0  0  0  0  0  0  0  0  0  0  0  0
    6.4515    0.0105   23.3197 H   0  0  0  0  0  0  0  0  0  0  0  0
    7.5023   -0.2071   24.5505 H   0  0  0  0  0  0  0  0  0  0  0  0
    5.9019    0.8006   21.8144 H   0  0  0  0  0  0  0  0  0  0  0  0
    8.2322   -0.0097   19.0631 H   0  0  0  0  0  0  0  0  0  0  0  0
    4.7590    0.8441   17.0847 H   0  0  0  0  0  0  0  0  0  0  0  0
    3.5913    0.9125   20.2976 H   0  0  0  0  0  0  0  0  0  0  0  0
    3.3896    1.8715   18.9913 H   0  0  0  0  0  0  0  0  0  0  0  0
    5.2351    3.2967   20.4199 H   0  0  0  0  0  0  0  0  0  0  0  0
    4.3039    3.0774   22.7262 H   0  0  0  0  0  0  0  0  0  0  0  0
    3.3495    1.8502   22.2265 H   0  0  0  0  0  0  0  0  0  0  0  0
    2.2541    3.3753   20.5732 H   0  0  0  0  0  0  0  0  0  0  0  0
    3.2085    4.6026   21.0730 H   0  0  0  0  0  0  0  0  0  0  0  0
  1  2  1  0  0  0  0
  2  3  2  0  0  0  0
  2  4  1  0  0  0  0
  3  5  1  0  0  0  0
  3  6  1  0  0  0  0
  4  7  2  0  0  0  0
  4  8  1  0  0  0  0
  6  9  2  0  0  0  0
  7 10  1  0  0  0  0
  8 11  1  0  0  0  0
  8 12  1  0  0  0  0
 11 13  2  0  0  0  0
 11 14  1  0  0  0  0
 14 15  1  0  0  0  0
 15 16  1  0  0  0  0
 15 17  2  0  0  0  0
 16 18  1  0  0  0  0
 16 19  1  0  0  0  0
 17 20  1  0  0  0  0
 19 21  1  0  0  0  0
 21 22  1  0  0  0  0
 21 23  1  0  0  0  0
  7  9  1  0  0  0  0
 10 12  1  0  0  0  0
 18 20  2  0  0  0  0
 22 23  1  0  0  0  0
  6 24  1  0  0  0  0
  8 25  1  0  0  0  0
  9 26  1  0  0  0  0
 12 27  1  0  0  0  0
 12 28  1  0  0  0  0
 14 29  1  0  0  0  0
 17 30  1  0  0  0  0
 18 31  1  0  0  0  0
 19 32  1  0  0  0  0
 19 33  1  0  0  0  0
 21 34  1  0  0  0  0
 22 35  1  0  0  0  0
 22 36  1  0  0  0  0
 23 37  1  0  0  0  0
 23 38  1  0  0  0  0
M  END
> <BIOSOLVEIT.HYDE_ESTIMATED_AFFINITY_LOWER_BOUNDARY [nM]>
1930.971088

> <BIOSOLVEIT.HYDE_ESTIMATED_AFFINITY_UPPER_BOUNDARY [nM]>
191853.394359

> <BIOSOLVEIT.HYDE_LIGAND_EFFICIENCY range: ++, +, 0, -, -->
-

> <BIOSOLVEIT.HYDE_LIGAND_LIPOPHILIC_EFFICIENCY range: ++, +, 0, -, -->
--

> <BIOSOLVEIT.INTER_CLASH range: red, yellow, green>
green

> <BIOSOLVEIT.INTRA_CLASH range: red, yellow, green>
green

> <BIOSOLVEIT.LOGP>
3.7146

> <BIOSOLVEIT.MOLECULAR WEIGHT>
352.22

> <BIOSOLVEIT.MOLECULE_CHECKSUM>
LTI2LjkxNjg7MS4xNzAz

> <BIOSOLVEIT.TORSION_QUALITY range: red, yellow, green, not rotatable>
red

> <BIOSOLVEIT.TPSA>
56.15

> <BIOSOLVEIT.SEESAR_FAVORITE>
favorite

> <smc_score>
0.688

> <QED_score>
0.913

> <distance>
0.622

> <SimilarityPheSA_1>
0.726

> <Smiles>
O=C(Nc1cncn1CC1CC1)C1COc2ccc(Cl)c(Cl)c21

> <Similarity_SkelSpheres>
0.607

> <Cluster No>
288.0

> <QueryID>
JAG-UCB-a3ef7265-20

> <SimilarityPheSA>
0.7258

> <Postera series>
3-aminopyridine-like

> <PDB_code>
Mpro-x10324

> <Approach>
DGM_focussed_RL

> <ID>
20210618_538

> <SimilarityPheSA_2>
0.841

> <OPTIBRIUM.logD>
3.84148

> <OPTIBRIUM.BBB category>
-

> <OPTIBRIUM.logP>
3.84148

> <OPTIBRIUM.P-gp category>
no

> <OPTIBRIUM.logS>
1.56688

> <OPTIBRIUM.HIA category>
+

> <OPTIBRIUM.PPB90 category>
high

> <OPTIBRIUM.2D6 affinity category>
high

> <OPTIBRIUM.hERG pIC50>
4.88554

> <OPTIBRIUM.2C9 pKi>
5.21785

> <OPTIBRIUM.BBB log([brain]:[blood])>
-0.045877

> <OPTIBRIUM.logS @ pH7.4>
1.56688

$$$$
Compound 716_1_3
haSeeSAR  07122111353D 1   1.00000     0.00000     0
SeeSAR 11.0.2 hazemaj
 40 43  0  0  0  0            999 V2000
   12.2394    0.3419   24.9580 Cl  0  0  0  0  0  0  0  0  0  0  0  0
   10.5531    0.0954   25.4692 C   0  0  0  0  0  0  0  0  0  0  0  0
    9.5988   -0.3624   24.5670 C   0  0  0  0  0  0  0  0  0  0  0  0
   10.1936    0.3668   26.7854 C   0  0  0  0  0  0  0  0  0  0  0  0
    8.2848   -0.5496   24.9825 C   0  0  0  0  0  0  0  0  0  0  0  0
    9.9915   -0.6581   23.1285 C   0  0  0  0  0  0  0  0  0  0  0  0
    8.8759    0.1759   27.1888 C   0  0  0  0  0  0  0  0  0  0  0  0
    7.9134   -0.2825   26.2957 C   0  0  0  0  0  0  0  0  0  0  0  0
    8.7818   -0.7665   22.3032 N   0  0  0  0  0  0  0  0  0  0  0  0
    8.4132    0.5218   28.8723 Cl  0  0  0  0  0  0  0  0  0  0  0  0
    8.3979    0.1179   21.2976 C   0  0  0  0  0  0  0  0  0  0  0  0
    7.7703   -1.8232   22.4560 C   0  0  0  0  0  0  0  0  0  0  0  0
    8.9955    1.1462   20.9941 O   0  0  0  0  0  0  0  0  0  0  0  0
    7.2367   -0.3474   20.6908 N   0  0  0  0  0  0  0  0  0  0  0  0
    6.8669   -1.6500   21.2475 C   0  0  0  0  0  0  0  0  0  0  0  0
    6.5347    0.3167   19.6760 C   0  0  0  0  0  0  0  0  0  0  0  0
    5.3569    1.0219   19.9135 C   0  0  0  0  0  0  0  0  0  0  0  0
    7.0381    0.2670   18.3805 C   0  0  0  0  0  0  0  0  0  0  0  0
    4.7074    1.6600   18.8615 C   0  0  0  0  0  0  0  0  0  0  0  0
    4.7999    1.1099   21.1870 C   0  0  0  0  0  0  0  0  0  0  0  0
    6.3984    0.8884   17.3786 N   0  0  0  0  0  0  0  0  0  0  0  0
    5.2632    1.5715   17.5894 C   0  0  0  0  0  0  0  0  0  0  0  0
    3.5294    2.3701   19.0695 C   0  0  0  0  0  0  0  0  0  0  0  0
    3.6238    1.8137   21.4230 C   0  0  0  0  0  0  0  0  0  0  0  0
    2.9960    2.4410   20.3520 C   0  0  0  0  0  0  0  0  0  0  0  0
   10.8770    0.6969   27.4364 H   0  0  0  0  0  0  0  0  0  0  0  0
    7.6012   -0.8792   24.3314 H   0  0  0  0  0  0  0  0  0  0  0  0
   10.4984   -1.5192   23.0915 H   0  0  0  0  0  0  0  0  0  0  0  0
   10.5668    0.0824   22.7810 H   0  0  0  0  0  0  0  0  0  0  0  0
    6.9685   -0.4180   26.5934 H   0  0  0  0  0  0  0  0  0  0  0  0
    7.2553   -1.7013   23.3044 H   0  0  0  0  0  0  0  0  0  0  0  0
    8.1981   -2.7270   22.4526 H   0  0  0  0  0  0  0  0  0  0  0  0
    5.9055   -1.6559   21.5222 H   0  0  0  0  0  0  0  0  0  0  0  0
    7.0274   -2.3772   20.5802 H   0  0  0  0  0  0  0  0  0  0  0  0
    7.8825   -0.2356   18.1947 H   0  0  0  0  0  0  0  0  0  0  0  0
    5.2573    0.6552   21.9513 H   0  0  0  0  0  0  0  0  0  0  0  0
    4.8100    2.0235   16.8212 H   0  0  0  0  0  0  0  0  0  0  0  0
    3.0713    2.8246   18.3056 H   0  0  0  0  0  0  0  0  0  0  0  0
    3.2375    1.8677   22.3438 H   0  0  0  0  0  0  0  0  0  0  0  0
    2.1492    2.9501   20.5064 H   0  0  0  0  0  0  0  0  0  0  0  0
  1  2  1  0  0  0  0
  2  3  2  0  0  0  0
  2  4  1  0  0  0  0
  3  5  1  0  0  0  0
  3  6  1  0  0  0  0
  4  7  2  0  0  0  0
  5  8  2  0  0  0  0
  6  9  1  0  0  0  0
  7 10  1  0  0  0  0
  9 11  1  0  0  0  0
  9 12  1  0  0  0  0
 11 13  2  0  0  0  0
 11 14  1  0  0  0  0
 12 15  1  0  0  0  0
 14 16  1  0  0  0  0
 16 17  1  0  0  0  0
 16 18  2  0  0  0  0
 17 19  1  0  0  0  0
 17 20  2  0  0  0  0
 18 21  1  0  0  0  0
 19 22  1  0  0  0  0
 19 23  2  0  0  0  0
 20 24  1  0  0  0  0
 23 25  1  0  0  0  0
  7  8  1  0  0  0  0
 14 15  1  0  0  0  0
 21 22  2  0  0  0  0
 24 25  2  0  0  0  0
  4 26  1  0  0  0  0
  5 27  1  0  0  0  0
  6 28  1  0  0  0  0
  6 29  1  0  0  0  0
  8 30  1  0  0  0  0
 12 31  1  0  0  0  0
 12 32  1  0  0  0  0
 15 33  1  0  0  0  0
 15 34  1  0  0  0  0
 18 35  1  0  0  0  0
 20 36  1  0  0  0  0
 22 37  1  0  0  0  0
 23 38  1  0  0  0  0
 24 39  1  0  0  0  0
 25 40  1  0  0  0  0
M  END
> <BIOSOLVEIT.HYDE_ESTIMATED_AFFINITY_LOWER_BOUNDARY [nM]>
1986.464273

> <BIOSOLVEIT.HYDE_ESTIMATED_AFFINITY_UPPER_BOUNDARY [nM]>
197366.970456

> <BIOSOLVEIT.HYDE_LIGAND_EFFICIENCY range: ++, +, 0, -, -->
-

> <BIOSOLVEIT.HYDE_LIGAND_LIPOPHILIC_EFFICIENCY range: ++, +, 0, -, -->
--

> <BIOSOLVEIT.INTER_CLASH range: red, yellow, green>
green

> <BIOSOLVEIT.INTRA_CLASH range: red, yellow, green>
red

> <BIOSOLVEIT.LOGP>
4.9838

> <BIOSOLVEIT.MOLECULAR WEIGHT>
372.254

> <BIOSOLVEIT.MOLECULE_CHECKSUM>
LTI2Ljg0NjY7MS4wNzM4Ng==

> <BIOSOLVEIT.TORSION_QUALITY range: red, yellow, green, not rotatable>
green

> <BIOSOLVEIT.TPSA>
36.44

> <BIOSOLVEIT.SEESAR_FAVORITE>
favorite

> <smc_score>
0.625

> <QED_score>
0.65

> <distance>
0.516

> <SimilarityPheSA_1>
0.765

> <Smiles>
O=C1N(Cc2ccc(Cl)cc2Cl)CCN1c1cncc2ccccc12

> <Similarity_SkelSpheres>
0.804

> <Cluster No>
405.0

> <QueryID>
PET-UNK-c9c1e0d8-3

> <SimilarityPheSA>
0.7647

> <Postera series>
3-aminopyridine-like

> <PDB_code>
Mpro-x12587

> <Approach>
DGM_focussed_RL

> <ID>
20210618_715

> <SimilarityPheSA_2>
0.933

> <OPTIBRIUM.logD>
4.21457

> <OPTIBRIUM.BBB category>
+

> <OPTIBRIUM.logP>
4.21457

> <OPTIBRIUM.P-gp category>
no

> <OPTIBRIUM.logS>
-0.0341086

> <OPTIBRIUM.HIA category>
+

> <OPTIBRIUM.PPB90 category>
high

> <OPTIBRIUM.2D6 affinity category>
medium

> <OPTIBRIUM.hERG pIC50>
5.57247

> <OPTIBRIUM.2C9 pKi>
5.72514

> <OPTIBRIUM.BBB log([brain]:[blood])>
0.0718596

> <OPTIBRIUM.logS @ pH7.4>
-0.0341086

$$$$
Compound 118_1_07
haSeeSAR  07122111353D 1   1.00000     0.00000     0
SeeSAR 11.0.2 hazemaj
 46 49  0  0  0  0            999 V2000
    5.7564    2.0471   26.8213 Cl  0  0  0  0  0  0  0  0  0  0  0  0
    7.3506    1.2693   26.9744 C   0  0  0  0  0  0  0  0  0  0  0  0
    7.9853    1.2216   28.2108 C   0  0  0  0  0  0  0  0  0  0  0  0
    7.9493    0.7118   25.8504 C   0  0  0  0  0  0  0  0  0  0  0  0
    7.1977    1.9438   29.6342 Cl  0  0  0  0  0  0  0  0  0  0  0  0
    9.2304    0.6148   28.3420 C   0  0  0  0  0  0  0  0  0  0  0  0
    9.1937    0.1072   25.9872 C   0  0  0  0  0  0  0  0  0  0  0  0
    9.8345    0.0564   27.2205 C   0  0  0  0  0  0  0  0  0  0  0  0
    9.8628   -0.5078   24.7695 C   0  0  1  0  0  0  0  0  0  0  0  0
    9.1452   -1.7638   24.3164 C   0  0  1  0  0  0  0  0  0  0  0  0
    9.8149    0.4193   23.5652 C   0  0  0  0  0  0  0  0  0  0  0  0
    9.2537   -1.7243   22.8076 C   0  0  0  0  0  0  0  0  0  0  0  0
    9.7623   -3.0176   24.9181 C   0  0  0  0  0  0  0  0  0  0  0  0
    9.1102   -0.3002   22.5080 N   0  0  0  0  0  0  0  0  0  0  0  0
    8.4537    0.2669   21.4106 C   0  0  0  0  0  0  0  0  0  0  0  0
    8.9198    1.2278   20.8635 O   0  0  0  0  0  0  0  0  0  0  0  0
    7.2786   -0.2748   20.9606 N   0  0  0  0  0  0  0  0  0  0  0  0
    6.6209    0.2933   19.8613 C   0  0  0  0  0  0  0  0  0  0  0  0
    5.4388    1.0202   19.9867 C   0  0  0  0  0  0  0  0  0  0  0  0
    7.1766    0.1209   18.5979 C   0  0  0  0  0  0  0  0  0  0  0  0
    4.8481    1.5517   18.8444 C   0  0  0  0  0  0  0  0  0  0  0  0
    4.8266    1.2324   21.2190 C   0  0  0  0  0  0  0  0  0  0  0  0
    6.5843    0.6448   17.5139 N   0  0  0  0  0  0  0  0  0  0  0  0
    5.4456    1.3493   17.6036 C   0  0  0  0  0  0  0  0  0  0  0  0
    3.6673    2.2817   18.9403 C   0  0  0  0  0  0  0  0  0  0  0  0
    3.6465    1.9586   21.3353 C   0  0  0  0  0  0  0  0  0  0  0  0
    3.0731    2.4818   20.1815 C   0  0  0  0  0  0  0  0  0  0  0  0
    7.4937    0.7450   24.9608 H   0  0  0  0  0  0  0  0  0  0  0  0
    9.6856    0.5806   29.2319 H   0  0  0  0  0  0  0  0  0  0  0  0
   10.7299   -0.3817   27.3009 H   0  0  0  0  0  0  0  0  0  0  0  0
   10.8145   -0.7262   24.9856 H   0  0  0  0  0  0  0  0  0  0  0  0
    8.1823   -1.7089   24.5808 H   0  0  0  0  0  0  0  0  0  0  0  0
   10.7423    0.6464   23.2681 H   0  0  0  0  0  0  0  0  0  0  0  0
    9.3239    1.2592   23.7964 H   0  0  0  0  0  0  0  0  0  0  0  0
    8.5236   -2.2574   22.3802 H   0  0  0  0  0  0  0  0  0  0  0  0
   10.1412   -2.0687   22.5015 H   0  0  0  0  0  0  0  0  0  0  0  0
    9.2631   -3.8222   24.5967 H   0  0  0  0  0  0  0  0  0  0  0  0
   10.7198   -3.0853   24.6377 H   0  0  0  0  0  0  0  0  0  0  0  0
    9.7098   -2.9692   25.9155 H   0  0  0  0  0  0  0  0  0  0  0  0
    6.8901   -1.0756   21.4165 H   0  0  0  0  0  0  0  0  0  0  0  0
    8.0252   -0.3981   18.4965 H   0  0  0  0  0  0  0  0  0  0  0  0
    5.2470    0.8522   22.0429 H   0  0  0  0  0  0  0  0  0  0  0  0
    5.0263    1.7290   16.7790 H   0  0  0  0  0  0  0  0  0  0  0  0
    3.2462    2.6624   18.1171 H   0  0  0  0  0  0  0  0  0  0  0  0
    3.2198    2.1013   22.2285 H   0  0  0  0  0  0  0  0  0  0  0  0
    2.2247    3.0073   20.2451 H   0  0  0  0  0  0  0  0  0  0  0  0
  1  2  1  0  0  0  0
  2  3  2  0  0  0  0
  2  4  1  0  0  0  0
  3  5  1  0  0  0  0
  3  6  1  0  0  0  0
  4  7  2  0  0  0  0
  6  8  2  0  0  0  0
  7  9  1  0  0  0  0
  9 10  1  0  0  0  0
  9 11  1  0  0  0  0
 10 12  1  0  0  0  0
 10 13  1  0  0  0  0
 11 14  1  0  0  0  0
 14 15  1  0  0  0  0
 15 16  2  0  0  0  0
 15 17  1  0  0  0  0
 17 18  1  0  0  0  0
 18 19  1  0  0  0  0
 18 20  2  0  0  0  0
 19 21  1  0  0  0  0
 19 22  2  0  0  0  0
 20 23  1  0  0  0  0
 21 24  1  0  0  0  0
 21 25  2  0  0  0  0
 22 26  1  0  0  0  0
 25 27  1  0  0  0  0
  7  8  1  0  0  0  0
 12 14  1  0  0  0  0
 23 24  2  0  0  0  0
 26 27  2  0  0  0  0
  4 28  1  0  0  0  0
  6 29  1  0  0  0  0
  8 30  1  0  0  0  0
  9 31  1  0  0  0  0
 10 32  1  0  0  0  0
 11 33  1  0  0  0  0
 11 34  1  0  0  0  0
 12 35  1  0  0  0  0
 12 36  1  0  0  0  0
 13 37  1  0  0  0  0
 13 38  1  0  0  0  0
 13 39  1  0  0  0  0
 17 40  1  0  0  0  0
 20 41  1  0  0  0  0
 22 42  1  0  0  0  0
 24 43  1  0  0  0  0
 25 44  1  0  0  0  0
 26 45  1  0  0  0  0
 27 46  1  0  0  0  0
M  END
> <BIOSOLVEIT.HYDE_ESTIMATED_AFFINITY_LOWER_BOUNDARY [nM]>
2123.950738

> <BIOSOLVEIT.HYDE_ESTIMATED_AFFINITY_UPPER_BOUNDARY [nM]>
211027.063638

> <BIOSOLVEIT.HYDE_LIGAND_EFFICIENCY range: ++, +, 0, -, -->
-

> <BIOSOLVEIT.HYDE_LIGAND_LIPOPHILIC_EFFICIENCY range: ++, +, 0, -, -->
--

> <BIOSOLVEIT.INTER_CLASH range: red, yellow, green>
green

> <BIOSOLVEIT.INTRA_CLASH range: red, yellow, green>
green

> <BIOSOLVEIT.LOGP>
5.809

> <BIOSOLVEIT.MOLECULAR WEIGHT>
400.307

> <BIOSOLVEIT.MOLECULE_CHECKSUM>
LTI2LjY4MDc7MC45ODgxNzQ=

> <BIOSOLVEIT.TORSION_QUALITY range: red, yellow, green, not rotatable>
green

> <BIOSOLVEIT.TPSA>
45.23

> <BIOSOLVEIT.SEESAR_FAVORITE>
favorite

> <smc_score>
0.563

> <QED_score>
0.59

> <distance>
0.508

> <SimilarityPheSA_1>
0.655

> <Smiles>
CC1CN(C(=O)Nc2cncc3ccccc23)CC1c1ccc(Cl)c(Cl)c1

> <Similarity_SkelSpheres>
0.876

> <Cluster No>
54.0

> <QueryID>
ALP-POS-6d04362c-1

> <SimilarityPheSA>
0.6553

> <Postera series>
3-aminopyridine-like

> <PDB_code>
Mpro-x12419

> <Approach>
DGM_focussed_RL

> <ID>
20210618_117

> <SimilarityPheSA_2>
0.823

> <OPTIBRIUM.logD>
5.26895

> <OPTIBRIUM.BBB category>
+

> <OPTIBRIUM.logP>
5.26895

> <OPTIBRIUM.P-gp category>
no

> <OPTIBRIUM.logS>
-0.826632

> <OPTIBRIUM.HIA category>
+

> <OPTIBRIUM.PPB90 category>
high

> <OPTIBRIUM.2D6 affinity category>
high

> <OPTIBRIUM.hERG pIC50>
5.6988

> <OPTIBRIUM.2C9 pKi>
5.92936

> <OPTIBRIUM.BBB log([brain]:[blood])>
-0.069391

> <OPTIBRIUM.logS @ pH7.4>
-0.826632

$$$$
Compound 555_1_07
haSeeSAR  07122111353D 1   1.00000     0.00000     0
SeeSAR 11.0.2 hazemaj
 53 57  0  0  0  0            999 V2000
    6.4448    5.5105   25.3543 Cl  0  0  0  0  0  0  0  0  0  0  0  0
    7.0702    4.0356   26.1273 C   0  0  0  0  0  0  0  0  0  0  0  0
    7.6124    4.0982   27.4040 C   0  0  0  0  0  0  0  0  0  0  0  0
    7.0165    2.8328   25.4338 C   0  0  0  0  0  0  0  0  0  0  0  0
    7.6752    5.6503   28.2718 Cl  0  0  0  0  0  0  0  0  0  0  0  0
    8.1111    2.9442   28.0023 C   0  0  0  0  0  0  0  0  0  0  0  0
    7.5155    1.6836   26.0353 C   0  0  0  0  0  0  0  0  0  0  0  0
    8.0735    1.7448   27.3061 C   0  0  0  0  0  0  0  0  0  0  0  0
    7.5406    0.3376   25.3282 C   0  0  0  0  0  0  0  0  0  0  0  0
    8.6756    0.4936   27.9189 C   0  0  0  0  0  0  0  0  0  0  0  0
    8.9675   -0.1715   25.4435 C   0  0  2  0  0  0  0  0  0  0  0  0
    9.5742   -0.1129   26.8472 C   0  0  0  0  0  0  0  0  0  0  0  0
    9.8975    0.6031   24.5229 C   0  0  0  0  0  0  0  0  0  0  0  0
   10.2567   -0.2588   23.3236 C   0  0  0  0  0  0  0  0  0  0  0  0
    9.0556   -0.4940   22.5124 N   0  0  0  0  0  0  0  0  0  0  0  0
    8.6209    0.2954   21.4501 C   0  0  0  0  0  0  0  0  0  0  0  0
    8.1076   -1.5949   22.7410 C   0  0  0  0  0  0  0  0  0  0  0  0
    9.1573    1.3335   21.0746 O   0  0  0  0  0  0  0  0  0  0  0  0
    7.4890   -0.2773   20.8809 N   0  0  0  0  0  0  0  0  0  0  0  0
    7.1959   -1.5581   21.5270 C   0  0  0  0  0  0  0  0  0  0  0  0
    6.7496    0.2735   19.8257 C   0  0  0  0  0  0  0  0  0  0  0  0
    5.5615    0.9735   20.0247 C   0  0  0  0  0  0  0  0  0  0  0  0
    7.2250    0.1121   18.5288 C   0  0  0  0  0  0  0  0  0  0  0  0
    4.8744    1.4959   18.9335 C   0  0  0  0  0  0  0  0  0  0  0  0
    5.0312    1.1695   21.2975 C   0  0  0  0  0  0  0  0  0  0  0  0
    6.5491    0.6232   17.4888 N   0  0  0  0  0  0  0  0  0  0  0  0
    5.4036    1.2994   17.6623 C   0  0  0  0  0  0  0  0  0  0  0  0
    3.6854    2.1981   19.1027 C   0  0  0  0  0  0  0  0  0  0  0  0
    3.8449    1.8681   21.4950 C   0  0  0  0  0  0  0  0  0  0  0  0
    3.1792    2.3786   20.3855 C   0  0  0  0  0  0  0  0  0  0  0  0
    6.6243    2.7946   24.5147 H   0  0  0  0  0  0  0  0  0  0  0  0
    8.4930    2.9795   28.9258 H   0  0  0  0  0  0  0  0  0  0  0  0
    7.2871    0.4457   24.3669 H   0  0  0  0  0  0  0  0  0  0  0  0
    6.9081   -0.2985   25.7701 H   0  0  0  0  0  0  0  0  0  0  0  0
    7.9539   -0.1507   28.1718 H   0  0  0  0  0  0  0  0  0  0  0  0
    9.2121    0.7281   28.7296 H   0  0  0  0  0  0  0  0  0  0  0  0
    8.9743   -1.1270   25.1489 H   0  0  0  0  0  0  0  0  0  0  0  0
    9.8006   -1.0463   27.1254 H   0  0  0  0  0  0  0  0  0  0  0  0
   10.4108    0.4329   26.7999 H   0  0  0  0  0  0  0  0  0  0  0  0
   10.7305    0.8475   25.0193 H   0  0  0  0  0  0  0  0  0  0  0  0
    9.4396    1.4354   24.2100 H   0  0  0  0  0  0  0  0  0  0  0  0
   10.6221   -1.1344   23.6400 H   0  0  0  0  0  0  0  0  0  0  0  0
   10.9458    0.2097   22.7708 H   0  0  0  0  0  0  0  0  0  0  0  0
    7.5861   -1.4454   23.5811 H   0  0  0  0  0  0  0  0  0  0  0  0
    8.5875   -2.4704   22.7980 H   0  0  0  0  0  0  0  0  0  0  0  0
    6.2363   -1.6012   21.8051 H   0  0  0  0  0  0  0  0  0  0  0  0
    7.3987   -2.3188   20.9104 H   0  0  0  0  0  0  0  0  0  0  0  0
    8.0762   -0.3881   18.3704 H   0  0  0  0  0  0  0  0  0  0  0  0
    5.5158    0.7986   22.0897 H   0  0  0  0  0  0  0  0  0  0  0  0
    4.9232    1.6675   16.8662 H   0  0  0  0  0  0  0  0  0  0  0  0
    3.2002    2.5690   18.3109 H   0  0  0  0  0  0  0  0  0  0  0  0
    3.4781    2.0006   22.4158 H   0  0  0  0  0  0  0  0  0  0  0  0
    2.3247    2.8824   20.5119 H   0  0  0  0  0  0  0  0  0  0  0  0
  1  2  1  0  0  0  0
  2  3  2  0  0  0  0
  2  4  1  0  0  0  0
  3  5  1  0  0  0  0
  3  6  1  0  0  0  0
  4  7  2  0  0  0  0
  6  8  2  0  0  0  0
  7  9  1  0  0  0  0
  8 10  1  0  0  0  0
  9 11  1  0  0  0  0
 10 12  1  0  0  0  0
 11 13  1  0  0  0  0
 13 14  1  0  0  0  0
 14 15  1  0  0  0  0
 15 16  1  0  0  0  0
 15 17  1  0  0  0  0
 16 18  2  0  0  0  0
 16 19  1  0  0  0  0
 17 20  1  0  0  0  0
 19 21  1  0  0  0  0
 21 22  1  0  0  0  0
 21 23  2  0  0  0  0
 22 24  1  0  0  0  0
 22 25  2  0  0  0  0
 23 26  1  0  0  0  0
 24 27  1  0  0  0  0
 24 28  2  0  0  0  0
 25 29  1  0  0  0  0
 28 30  1  0  0  0  0
  7  8  1  0  0  0  0
 11 12  1  0  0  0  0
 19 20  1  0  0  0  0
 26 27  2  0  0  0  0
 29 30  2  0  0  0  0
  4 31  1  0  0  0  0
  6 32  1  0  0  0  0
  9 33  1  0  0  0  0
  9 34  1  0  0  0  0
 10 35  1  0  0  0  0
 10 36  1  0  0  0  0
 11 37  1  0  0  0  0
 12 38  1  0  0  0  0
 12 39  1  0  0  0  0
 13 40  1  0  0  0  0
 13 41  1  0  0  0  0
 14 42  1  0  0  0  0
 14 43  1  0  0  0  0
 17 44  1  0  0  0  0
 17 45  1  0  0  0  0
 20 46  1  0  0  0  0
 20 47  1  0  0  0  0
 23 48  1  0  0  0  0
 25 49  1  0  0  0  0
 27 50  1  0  0  0  0
 28 51  1  0  0  0  0
 29 52  1  0  0  0  0
 30 53  1  0  0  0  0
M  END
> <BIOSOLVEIT.HYDE_ESTIMATED_AFFINITY_LOWER_BOUNDARY [nM]>
2293.401895

> <BIOSOLVEIT.HYDE_ESTIMATED_AFFINITY_UPPER_BOUNDARY [nM]>
227863.037906

> <BIOSOLVEIT.HYDE_LIGAND_EFFICIENCY range: ++, +, 0, -, -->
-

> <BIOSOLVEIT.HYDE_LIGAND_LIPOPHILIC_EFFICIENCY range: ++, +, 0, -, -->
--

> <BIOSOLVEIT.INTER_CLASH range: red, yellow, green>
green

> <BIOSOLVEIT.INTRA_CLASH range: red, yellow, green>
green

> <BIOSOLVEIT.LOGP>
5.9788

> <BIOSOLVEIT.MOLECULAR WEIGHT>
440.372

> <BIOSOLVEIT.MOLECULE_CHECKSUM>
LTI2LjQ5MDQ7MC44ODMwMTQ=

> <BIOSOLVEIT.TORSION_QUALITY range: red, yellow, green, not rotatable>
yellow

> <BIOSOLVEIT.TPSA>
36.44

> <BIOSOLVEIT.SEESAR_FAVORITE>
favorite

> <smc_score>
0.688

> <QED_score>
0.501

> <distance>
0.529

> <SimilarityPheSA_1>
0.686

> <Smiles>
O=C1N(CCC2CCc3cc(Cl)c(Cl)cc3C2)CCN1c1cncc2ccccc12

> <Similarity_SkelSpheres>
0.763

> <Cluster No>
297.0

> <QueryID>
PET-UNK-c9c1e0d8-3

> <SimilarityPheSA>
0.6862

> <Postera series>
3-aminopyridine-like

> <PDB_code>
Mpro-x12587

> <Approach>
DGM_focussed_RL

> <ID>
20210618_554

> <SimilarityPheSA_2>
0.798

> <OPTIBRIUM.logD>
5.63807

> <OPTIBRIUM.BBB category>
+

> <OPTIBRIUM.logP>
5.63807

> <OPTIBRIUM.P-gp category>
yes

> <OPTIBRIUM.logS>
-0.611183

> <OPTIBRIUM.HIA category>
+

> <OPTIBRIUM.PPB90 category>
high

> <OPTIBRIUM.2D6 affinity category>
medium

> <OPTIBRIUM.hERG pIC50>
6.18332

> <OPTIBRIUM.2C9 pKi>
5.70681

> <OPTIBRIUM.BBB log([brain]:[blood])>
0.0866107

> <OPTIBRIUM.logS @ pH7.4>
-0.611183

$$$$
Compound 114_1_01
haSeeSAR  07122111353D 1   1.00000     0.00000     0
SeeSAR 11.0.2 hazemaj
 44 47  0  0  0  0            999 V2000
    9.5751    0.2952   27.8872 Cl  0  0  0  0  0  0  0  0  0  0  0  0
    9.1983   -0.9586   26.6796 C   0  0  0  0  0  0  0  0  0  0  0  0
    8.5735   -2.1320   27.0921 C   0  0  0  0  0  0  0  0  0  0  0  0
    9.4913   -0.8002   25.3263 C   0  0  0  0  0  0  0  0  0  0  0  0
    8.1384   -2.3554   28.8021 Cl  0  0  0  0  0  0  0  0  0  0  0  0
    8.2781   -3.1425   26.1833 C   0  0  0  0  0  0  0  0  0  0  0  0
    9.1444   -1.7893   24.4047 C   0  0  0  0  0  0  0  0  0  0  0  0
   10.1604    0.4400   24.7825 C   0  0  2  0  0  0  0  0  0  0  0  0
    8.5710   -2.9770   24.8329 C   0  0  0  0  0  0  0  0  0  0  0  0
    9.3506   -1.6527   22.9102 C   0  0  0  0  0  0  0  0  0  0  0  0
    9.1665    0.8235   23.7011 C   0  0  0  0  0  0  0  0  0  0  0  0
   11.5698    0.2093   24.2765 C   0  0  0  0  0  0  0  0  0  0  0  0
    9.0027   -0.2370   22.6905 N   0  0  0  0  0  0  0  0  0  0  0  0
    8.4799    0.0737   21.4274 C   0  0  0  0  0  0  0  0  0  0  0  0
    8.9285    1.0288   20.7935 O   0  0  0  0  0  0  0  0  0  0  0  0
    7.3590   -0.7687   20.8407 C   0  0  0  0  0  0  0  0  0  0  0  0
    6.6377    0.0268   19.7627 C   0  0  0  0  0  0  0  0  0  0  0  0
    5.5027    0.7951   20.0195 C   0  0  0  0  0  0  0  0  0  0  0  0
    7.1415   -0.0215   18.4666 C   0  0  0  0  0  0  0  0  0  0  0  0
    4.8993    1.4943   18.9789 C   0  0  0  0  0  0  0  0  0  0  0  0
    4.9420    0.8906   21.2915 C   0  0  0  0  0  0  0  0  0  0  0  0
    6.5436    0.6611   17.4788 N   0  0  0  0  0  0  0  0  0  0  0  0
    5.4510    1.4057   17.7048 C   0  0  0  0  0  0  0  0  0  0  0  0
    3.7667    2.2685   19.2073 C   0  0  0  0  0  0  0  0  0  0  0  0
    3.8099    1.6584   21.5423 C   0  0  0  0  0  0  0  0  0  0  0  0
    3.2251    2.3491   20.4857 C   0  0  0  0  0  0  0  0  0  0  0  0
    7.8539   -3.9905   26.5011 H   0  0  0  0  0  0  0  0  0  0  0  0
   10.1726    1.1478   25.4888 H   0  0  0  0  0  0  0  0  0  0  0  0
    8.3703   -3.7063   24.1789 H   0  0  0  0  0  0  0  0  0  0  0  0
    8.7420   -2.2612   22.4009 H   0  0  0  0  0  0  0  0  0  0  0  0
   10.2991   -1.8392   22.6543 H   0  0  0  0  0  0  0  0  0  0  0  0
    9.4899    1.6535   23.2467 H   0  0  0  0  0  0  0  0  0  0  0  0
    8.2795    1.0009   24.1276 H   0  0  0  0  0  0  0  0  0  0  0  0
   11.9461    1.0702   23.9340 H   0  0  0  0  0  0  0  0  0  0  0  0
   12.1409   -0.1302   25.0239 H   0  0  0  0  0  0  0  0  0  0  0  0
   11.5526   -0.4644   23.5377 H   0  0  0  0  0  0  0  0  0  0  0  0
    6.7125   -1.0132   21.5632 H   0  0  0  0  0  0  0  0  0  0  0  0
    7.7421   -1.6012   20.4404 H   0  0  0  0  0  0  0  0  0  0  0  0
    7.9550   -0.5690   18.2701 H   0  0  0  0  0  0  0  0  0  0  0  0
    5.3665    0.3917   22.0471 H   0  0  0  0  0  0  0  0  0  0  0  0
    5.0276    1.9033   16.9478 H   0  0  0  0  0  0  0  0  0  0  0  0
    3.3416    2.7675   18.4520 H   0  0  0  0  0  0  0  0  0  0  0  0
    3.4242    1.7131   22.4634 H   0  0  0  0  0  0  0  0  0  0  0  0
    2.4106    2.9065   20.6464 H   0  0  0  0  0  0  0  0  0  0  0  0
  1  2  1  0  0  0  0
  2  3  2  0  0  0  0
  2  4  1  0  0  0  0
  3  5  1  0  0  0  0
  3  6  1  0  0  0  0
  4  7  2  0  0  0  0
  4  8  1  0  0  0  0
  6  9  2  0  0  0  0
  7 10  1  0  0  0  0
  8 11  1  0  0  0  0
  8 12  1  0  0  0  0
 10 13  1  0  0  0  0
 13 14  1  0  0  0  0
 14 15  2  0  0  0  0
 14 16  1  0  0  0  0
 16 17  1  0  0  0  0
 17 18  1  0  0  0  0
 17 19  2  0  0  0  0
 18 20  1  0  0  0  0
 18 21  2  0  0  0  0
 19 22  1  0  0  0  0
 20 23  1  0  0  0  0
 20 24  2  0  0  0  0
 21 25  1  0  0  0  0
 24 26  1  0  0  0  0
  7  9  1  0  0  0  0
 11 13  1  0  0  0  0
 22 23  2  0  0  0  0
 25 26  2  0  0  0  0
  6 27  1  0  0  0  0
  8 28  1  0  0  0  0
  9 29  1  0  0  0  0
 10 30  1  0  0  0  0
 10 31  1  0  0  0  0
 11 32  1  0  0  0  0
 11 33  1  0  0  0  0
 12 34  1  0  0  0  0
 12 35  1  0  0  0  0
 12 36  1  0  0  0  0
 16 37  1  0  0  0  0
 16 38  1  0  0  0  0
 19 39  1  0  0  0  0
 21 40  1  0  0  0  0
 23 41  1  0  0  0  0
 24 42  1  0  0  0  0
 25 43  1  0  0  0  0
 26 44  1  0  0  0  0
M  END
> <BIOSOLVEIT.HYDE_ESTIMATED_AFFINITY_LOWER_BOUNDARY [nM]>
2336.503821

> <BIOSOLVEIT.HYDE_ESTIMATED_AFFINITY_UPPER_BOUNDARY [nM]>
232145.469141

> <BIOSOLVEIT.HYDE_LIGAND_EFFICIENCY range: ++, +, 0, -, -->
-

> <BIOSOLVEIT.HYDE_LIGAND_LIPOPHILIC_EFFICIENCY range: ++, +, 0, -, -->
--

> <BIOSOLVEIT.INTER_CLASH range: red, yellow, green>
green

> <BIOSOLVEIT.INTRA_CLASH range: red, yellow, green>
green

> <BIOSOLVEIT.LOGP>
5.23

> <BIOSOLVEIT.MOLECULAR WEIGHT>
385.292

> <BIOSOLVEIT.MOLECULE_CHECKSUM>
LTI2LjQ0NDM7MS4wMTcwOQ==

> <BIOSOLVEIT.TORSION_QUALITY range: red, yellow, green, not rotatable>
yellow

> <BIOSOLVEIT.TPSA>
33.2

> <BIOSOLVEIT.SEESAR_FAVORITE>
favorite

> <smc_score>
0.938

> <QED_score>
0.605

> <distance>
0.586

> <SimilarityPheSA_1>
0.647

> <Smiles>
CC1CN(C(=O)Cc2cncc3ccccc23)Cc2ccc(Cl)c(Cl)c21

> <Similarity_SkelSpheres>
0.781

> <Cluster No>
53.0

> <QueryID>
PET-UNK-1901c25b-1

> <SimilarityPheSA>
0.6473

> <Postera series>
3-aminopyridine-like

> <PDB_code>
Mpro-x11790

> <Approach>
DGM_focussed_RL

> <ID>
20210618_113

> <SimilarityPheSA_2>
0.8

> <OPTIBRIUM.logD>
4.40624

> <OPTIBRIUM.BBB category>
+

> <OPTIBRIUM.logP>
4.40624

> <OPTIBRIUM.P-gp category>
no

> <OPTIBRIUM.logS>
0.321175

> <OPTIBRIUM.HIA category>
+

> <OPTIBRIUM.PPB90 category>
high

> <OPTIBRIUM.2D6 affinity category>
medium

> <OPTIBRIUM.hERG pIC50>
5.38808

> <OPTIBRIUM.2C9 pKi>
5.86156

> <OPTIBRIUM.BBB log([brain]:[blood])>
-0.366431

> <OPTIBRIUM.logS @ pH7.4>
0.321175

$$$$
Compound 114_1_02
haSeeSAR  07122111353D 1   1.00000     0.00000     0
SeeSAR 11.0.2 hazemaj
 44 47  0  0  0  0            999 V2000
    9.5750    0.2951   27.8872 Cl  0  0  0  0  0  0  0  0  0  0  0  0
    9.1982   -0.9586   26.6796 C   0  0  0  0  0  0  0  0  0  0  0  0
    8.5733   -2.1320   27.0920 C   0  0  0  0  0  0  0  0  0  0  0  0
    9.4911   -0.8002   25.3262 C   0  0  0  0  0  0  0  0  0  0  0  0
    8.1382   -2.3553   28.8020 Cl  0  0  0  0  0  0  0  0  0  0  0  0
    8.2778   -3.1424   26.1832 C   0  0  0  0  0  0  0  0  0  0  0  0
    9.1441   -1.7893   24.4047 C   0  0  0  0  0  0  0  0  0  0  0  0
   10.1602    0.4399   24.7826 C   0  0  2  0  0  0  0  0  0  0  0  0
    8.5707   -2.9769   24.8329 C   0  0  0  0  0  0  0  0  0  0  0  0
    9.3503   -1.6526   22.9102 C   0  0  0  0  0  0  0  0  0  0  0  0
    9.1662    0.8235   23.7010 C   0  0  0  0  0  0  0  0  0  0  0  0
   11.5697    0.2092   24.2765 C   0  0  0  0  0  0  0  0  0  0  0  0
    9.0024   -0.2369   22.6904 N   0  0  0  0  0  0  0  0  0  0  0  0
    8.4795    0.0738   21.4274 C   0  0  0  0  0  0  0  0  0  0  0  0
    8.9282    1.0289   20.7935 O   0  0  0  0  0  0  0  0  0  0  0  0
    7.3586   -0.7685   20.8407 C   0  0  0  0  0  0  0  0  0  0  0  0
    6.6374    0.0269   19.7626 C   0  0  0  0  0  0  0  0  0  0  0  0
    5.5025    0.7952   20.0193 C   0  0  0  0  0  0  0  0  0  0  0  0
    7.1414   -0.0214   18.4666 C   0  0  0  0  0  0  0  0  0  0  0  0
    4.8991    1.4945   18.9787 C   0  0  0  0  0  0  0  0  0  0  0  0
    4.9415    0.8908   21.2913 C   0  0  0  0  0  0  0  0  0  0  0  0
    6.5436    0.6612   17.4788 N   0  0  0  0  0  0  0  0  0  0  0  0
    5.4510    1.4058   17.7047 C   0  0  0  0  0  0  0  0  0  0  0  0
    3.7666    2.2687   19.2069 C   0  0  0  0  0  0  0  0  0  0  0  0
    3.8095    1.6587   21.5421 C   0  0  0  0  0  0  0  0  0  0  0  0
    3.2247    2.3492   20.4853 C   0  0  0  0  0  0  0  0  0  0  0  0
    7.8535   -3.9904   26.5011 H   0  0  0  0  0  0  0  0  0  0  0  0
   10.1725    1.1478   25.4888 H   0  0  0  0  0  0  0  0  0  0  0  0
    8.3699   -3.7062   24.1788 H   0  0  0  0  0  0  0  0  0  0  0  0
    8.7417   -2.2611   22.4009 H   0  0  0  0  0  0  0  0  0  0  0  0
   10.2987   -1.8392   22.6543 H   0  0  0  0  0  0  0  0  0  0  0  0
    9.4897    1.6536   23.2468 H   0  0  0  0  0  0  0  0  0  0  0  0
    8.2794    1.0010   24.1277 H   0  0  0  0  0  0  0  0  0  0  0  0
   11.9460    1.0700   23.9340 H   0  0  0  0  0  0  0  0  0  0  0  0
   12.1407   -0.1303   25.0239 H   0  0  0  0  0  0  0  0  0  0  0  0
   11.5524   -0.4645   23.5377 H   0  0  0  0  0  0  0  0  0  0  0  0
    6.7120   -1.0128   21.5634 H   0  0  0  0  0  0  0  0  0  0  0  0
    7.7416   -1.6011   20.4406 H   0  0  0  0  0  0  0  0  0  0  0  0
    7.9549   -0.5688   18.2703 H   0  0  0  0  0  0  0  0  0  0  0  0
    5.3660    0.3918   22.0469 H   0  0  0  0  0  0  0  0  0  0  0  0
    5.0276    1.9035   16.9477 H   0  0  0  0  0  0  0  0  0  0  0  0
    3.3415    2.7677   18.4516 H   0  0  0  0  0  0  0  0  0  0  0  0
    3.4237    1.7133   22.4630 H   0  0  0  0  0  0  0  0  0  0  0  0
    2.4103    2.9066   20.6459 H   0  0  0  0  0  0  0  0  0  0  0  0
  1  2  1  0  0  0  0
  2  3  2  0  0  0  0
  2  4  1  0  0  0  0
  3  5  1  0  0  0  0
  3  6  1  0  0  0  0
  4  7  2  0  0  0  0
  4  8  1  0  0  0  0
  6  9  2  0  0  0  0
  7 10  1  0  0  0  0
  8 11  1  0  0  0  0
  8 12  1  0  0  0  0
 10 13  1  0  0  0  0
 13 14  1  0  0  0  0
 14 15  2  0  0  0  0
 14 16  1  0  0  0  0
 16 17  1  0  0  0  0
 17 18  1  0  0  0  0
 17 19  2  0  0  0  0
 18 20  1  0  0  0  0
 18 21  2  0  0  0  0
 19 22  1  0  0  0  0
 20 23  1  0  0  0  0
 20 24  2  0  0  0  0
 21 25  1  0  0  0  0
 24 26  1  0  0  0  0
  7  9  1  0  0  0  0
 11 13  1  0  0  0  0
 22 23  2  0  0  0  0
 25 26  2  0  0  0  0
  6 27  1  0  0  0  0
  8 28  1  0  0  0  0
  9 29  1  0  0  0  0
 10 30  1  0  0  0  0
 10 31  1  0  0  0  0
 11 32  1  0  0  0  0
 11 33  1  0  0  0  0
 12 34  1  0  0  0  0
 12 35  1  0  0  0  0
 12 36  1  0  0  0  0
 16 37  1  0  0  0  0
 16 38  1  0  0  0  0
 19 39  1  0  0  0  0
 21 40  1  0  0  0  0
 23 41  1  0  0  0  0
 24 42  1  0  0  0  0
 25 43  1  0  0  0  0
 26 44  1  0  0  0  0
M  END
> <BIOSOLVEIT.HYDE_ESTIMATED_AFFINITY_LOWER_BOUNDARY [nM]>
2337.364214

> <BIOSOLVEIT.HYDE_ESTIMATED_AFFINITY_UPPER_BOUNDARY [nM]>
232230.954222

> <BIOSOLVEIT.HYDE_LIGAND_EFFICIENCY range: ++, +, 0, -, -->
-

> <BIOSOLVEIT.HYDE_LIGAND_LIPOPHILIC_EFFICIENCY range: ++, +, 0, -, -->
--

> <BIOSOLVEIT.INTER_CLASH range: red, yellow, green>
green

> <BIOSOLVEIT.INTRA_CLASH range: red, yellow, green>
green

> <BIOSOLVEIT.LOGP>
5.23

> <BIOSOLVEIT.MOLECULAR WEIGHT>
385.292

> <BIOSOLVEIT.MOLECULE_CHECKSUM>
LTI2LjQ0MzQ7MS4wMTcwNQ==

> <BIOSOLVEIT.TORSION_QUALITY range: red, yellow, green, not rotatable>
yellow

> <BIOSOLVEIT.TPSA>
33.2

> <BIOSOLVEIT.SEESAR_FAVORITE>
favorite

> <smc_score>
0.938

> <QED_score>
0.605

> <distance>
0.586

> <SimilarityPheSA_1>
0.647

> <Smiles>
CC1CN(C(=O)Cc2cncc3ccccc23)Cc2ccc(Cl)c(Cl)c21

> <Similarity_SkelSpheres>
0.781

> <Cluster No>
53.0

> <QueryID>
PET-UNK-1901c25b-1

> <SimilarityPheSA>
0.6473

> <Postera series>
3-aminopyridine-like

> <PDB_code>
Mpro-x11790

> <Approach>
DGM_focussed_RL

> <ID>
20210618_113

> <SimilarityPheSA_2>
0.8

> <OPTIBRIUM.logD>
4.40624

> <OPTIBRIUM.BBB category>
+

> <OPTIBRIUM.logP>
4.40624

> <OPTIBRIUM.P-gp category>
no

> <OPTIBRIUM.logS>
0.321175

> <OPTIBRIUM.HIA category>
+

> <OPTIBRIUM.PPB90 category>
high

> <OPTIBRIUM.2D6 affinity category>
medium

> <OPTIBRIUM.hERG pIC50>
5.38808

> <OPTIBRIUM.2C9 pKi>
5.86156

> <OPTIBRIUM.BBB log([brain]:[blood])>
-0.366431

> <OPTIBRIUM.logS @ pH7.4>
0.321175

$$$$
Compound 760_1_07
haSeeSAR  07122111353D 1   1.00000     0.00000     0
SeeSAR 11.0.2 hazemaj
 48 50  0  0  0  0            999 V2000
   13.4549    1.1517   23.0783 Cl  0  0  0  0  0  0  0  0  0  0  0  0
   11.9608    0.2547   22.7169 C   0  0  0  0  0  0  0  0  0  0  0  0
   12.0384   -1.0216   22.1695 C   0  0  0  0  0  0  0  0  0  0  0  0
   10.7242    0.8326   22.9835 C   0  0  0  0  0  0  0  0  0  0  0  0
   13.6273   -1.7508   21.8338 Cl  0  0  0  0  0  0  0  0  0  0  0  0
   10.8829   -1.7395   21.8786 C   0  0  0  0  0  0  0  0  0  0  0  0
    9.5716    0.1114   22.6916 C   0  0  0  0  0  0  0  0  0  0  0  0
    9.6437   -1.1649   22.1434 C   0  0  0  0  0  0  0  0  0  0  0  0
    8.2177    0.7393   22.9808 C   0  0  0  0  0  0  0  0  0  0  0  0
    7.6307    1.2936   21.6929 C   0  0  0  0  0  0  0  0  0  0  0  0
    8.3281    1.9762   20.9425 O   0  0  0  0  0  0  0  0  0  0  0  0
    6.2966    1.0277   21.3600 N   0  0  0  0  0  0  0  0  0  0  0  0
    5.3597    2.0399   20.8597 C   0  0  1  0  0  0  0  0  0  0  0  0
    5.6737   -0.2965   21.4668 C   0  0  0  0  0  0  0  0  0  0  0  0
    4.4041    1.2859   19.9653 C   0  0  0  0  0  0  0  0  0  0  0  0
    4.5670    2.6361   22.0118 C   0  0  0  0  0  0  0  0  0  0  0  0
    5.6598   -0.8101   20.0407 C   0  0  0  0  0  0  0  0  0  0  0  0
    5.2559    0.3406   19.2349 N   0  0  0  0  0  0  0  0  0  0  0  0
    5.4701    2.8880   23.1519 N   0  0  0  0  0  0  0  0  0  0  0  0
    5.6592    0.5251   17.9069 C   0  0  0  0  0  0  0  0  0  0  0  0
    5.5810    2.1437   24.3258 C   0  0  0  0  0  0  0  0  0  0  0  0
    6.4439    3.9727   23.2436 C   0  0  0  0  0  0  0  0  0  0  0  0
    6.1790   -0.4027   17.2869 O   0  0  0  0  0  0  0  0  0  0  0  0
    5.4551    1.8710   17.2307 C   0  0  0  0  0  0  0  0  0  0  0  0
    4.9943    1.0973   24.5383 O   0  0  0  0  0  0  0  0  0  0  0  0
    6.3989    2.7341   25.2108 O   0  0  0  0  0  0  0  0  0  0  0  0
    6.7703    4.0109   24.7264 C   0  0  0  0  0  0  0  0  0  0  0  0
   10.6651    1.7497   23.3775 H   0  0  0  0  0  0  0  0  0  0  0  0
   10.9422   -2.6566   21.4844 H   0  0  0  0  0  0  0  0  0  0  0  0
    8.8047   -1.6696   21.9395 H   0  0  0  0  0  0  0  0  0  0  0  0
    8.3286    1.4806   23.6428 H   0  0  0  0  0  0  0  0  0  0  0  0
    7.6023    0.0463   23.3564 H   0  0  0  0  0  0  0  0  0  0  0  0
    5.8411    2.7526   20.3496 H   0  0  0  0  0  0  0  0  0  0  0  0
    4.7439   -0.2240   21.8278 H   0  0  0  0  0  0  0  0  0  0  0  0
    6.2141   -0.8972   22.0559 H   0  0  0  0  0  0  0  0  0  0  0  0
    3.9446    1.9096   19.3328 H   0  0  0  0  0  0  0  0  0  0  0  0
    3.7203    0.7989   20.5088 H   0  0  0  0  0  0  0  0  0  0  0  0
    3.8502    1.9965   22.2894 H   0  0  0  0  0  0  0  0  0  0  0  0
    4.1508    3.4971   21.7198 H   0  0  0  0  0  0  0  0  0  0  0  0
    5.0031   -1.5577   19.9417 H   0  0  0  0  0  0  0  0  0  0  0  0
    6.5691   -1.1273   19.7714 H   0  0  0  0  0  0  0  0  0  0  0  0
    6.0471    4.8390   22.9402 H   0  0  0  0  0  0  0  0  0  0  0  0
    7.2592    3.7712   22.7008 H   0  0  0  0  0  0  0  0  0  0  0  0
    5.7971    1.8277   16.2920 H   0  0  0  0  0  0  0  0  0  0  0  0
    4.4805    2.0945   17.2205 H   0  0  0  0  0  0  0  0  0  0  0  0
    5.9536    2.5763   17.7348 H   0  0  0  0  0  0  0  0  0  0  0  0
    6.2451    4.7280   25.1844 H   0  0  0  0  0  0  0  0  0  0  0  0
    7.7472    4.1710   24.8681 H   0  0  0  0  0  0  0  0  0  0  0  0
  1  2  1  0  0  0  0
  2  3  2  0  0  0  0
  2  4  1  0  0  0  0
  3  5  1  0  0  0  0
  3  6  1  0  0  0  0
  4  7  2  0  0  0  0
  6  8  2  0  0  0  0
  7  9  1  0  0  0  0
  9 10  1  0  0  0  0
 10 11  2  0  0  0  0
 10 12  1  0  0  0  0
 12 13  1  0  0  0  0
 12 14  1  0  0  0  0
 13 15  1  0  0  0  0
 13 16  1  0  0  0  0
 14 17  1  0  0  0  0
 15 18  1  0  0  0  0
 16 19  1  0  0  0  0
 18 20  1  0  0  0  0
 19 21  1  0  0  0  0
 19 22  1  0  0  0  0
 20 23  2  0  0  0  0
 20 24  1  0  0  0  0
 21 25  2  0  0  0  0
 21 26  1  0  0  0  0
 22 27  1  0  0  0  0
  7  8  1  0  0  0  0
 17 18  1  0  0  0  0
 26 27  1  0  0  0  0
  4 28  1  0  0  0  0
  6 29  1  0  0  0  0
  8 30  1  0  0  0  0
  9 31  1  0  0  0  0
  9 32  1  0  0  0  0
 13 33  1  0  0  0  0
 14 34  1  0  0  0  0
 14 35  1  0  0  0  0
 15 36  1  0  0  0  0
 15 37  1  0  0  0  0
 16 38  1  0  0  0  0
 16 39  1  0  0  0  0
 17 40  1  0  0  0  0
 17 41  1  0  0  0  0
 22 42  1  0  0  0  0
 22 43  1  0  0  0  0
 24 44  1  0  0  0  0
 24 45  1  0  0  0  0
 24 46  1  0  0  0  0
 27 47  1  0  0  0  0
 27 48  1  0  0  0  0
M  END
> <BIOSOLVEIT.HYDE_ESTIMATED_AFFINITY_LOWER_BOUNDARY [nM]>
2367.649752

> <BIOSOLVEIT.HYDE_ESTIMATED_AFFINITY_UPPER_BOUNDARY [nM]>
235240.001474

> <BIOSOLVEIT.HYDE_LIGAND_EFFICIENCY range: ++, +, 0, -, -->
-

> <BIOSOLVEIT.HYDE_LIGAND_LIPOPHILIC_EFFICIENCY range: ++, +, 0, -, -->
-

> <BIOSOLVEIT.INTER_CLASH range: red, yellow, green>
green

> <BIOSOLVEIT.INTRA_CLASH range: red, yellow, green>
green

> <BIOSOLVEIT.LOGP>
2.0474

> <BIOSOLVEIT.MOLECULAR WEIGHT>
414.287

> <BIOSOLVEIT.MOLECULE_CHECKSUM>
LTI2LjQxMTQ7MC45NzgyMDI=

> <BIOSOLVEIT.TORSION_QUALITY range: red, yellow, green, not rotatable>
yellow

> <BIOSOLVEIT.TPSA>
70.16

> <BIOSOLVEIT.SEESAR_FAVORITE>
favorite

> <smc_score>
0.563

> <QED_score>
0.756

> <distance>
0.732

> <SimilarityPheSA_1>
0.63

> <Smiles>
CC(=O)N1CCN(C(=O)Cc2ccc(Cl)c(Cl)c2)C(CN2CCOC2=O)C1

> <Similarity_SkelSpheres>
0.618

> <Cluster No>
12.0

> <QueryID>
MAT-POS-bb423b95-1

> <SimilarityPheSA>
0.6302

> <Postera series>
3-aminopyridine-like

> <PDB_code>
Mpro-x11542

> <Approach>
DGM_exploratory_RL

> <ID>
20210628_30

> <SimilarityPheSA_2>
0.613

> <OPTIBRIUM.logD>
1.39605

> <OPTIBRIUM.BBB category>
-

> <OPTIBRIUM.logP>
1.39605

> <OPTIBRIUM.P-gp category>
yes

> <OPTIBRIUM.logS>
3.56248

> <OPTIBRIUM.HIA category>
+

> <OPTIBRIUM.PPB90 category>
low

> <OPTIBRIUM.2D6 affinity category>
medium

> <OPTIBRIUM.hERG pIC50>
4.67136

> <OPTIBRIUM.2C9 pKi>
4.76795

> <OPTIBRIUM.BBB log([brain]:[blood])>
-0.889797

> <OPTIBRIUM.logS @ pH7.4>
3.56248

$$$$
Compound 118_1_04
haSeeSAR  07122111353D 1   1.00000     0.00000     0
SeeSAR 11.0.2 hazemaj
 46 49  0  0  0  0            999 V2000
    4.8688   -1.9919   26.6956 Cl  0  0  0  0  0  0  0  0  0  0  0  0
    6.0678   -0.8015   26.1343 C   0  0  0  0  0  0  0  0  0  0  0  0
    5.7965    0.5589   26.2339 C   0  0  0  0  0  0  0  0  0  0  0  0
    7.2722   -1.2448   25.6001 C   0  0  0  0  0  0  0  0  0  0  0  0
    4.2465    1.1004   26.9207 Cl  0  0  0  0  0  0  0  0  0  0  0  0
    6.7271    1.4978   25.7998 C   0  0  0  0  0  0  0  0  0  0  0  0
    8.1982   -0.3023   25.1675 C   0  0  0  0  0  0  0  0  0  0  0  0
    7.9333    1.0596   25.2635 C   0  0  0  0  0  0  0  0  0  0  0  0
    9.5223   -0.7696   24.5806 C   0  0  1  0  0  0  0  0  0  0  0  0
    9.3782   -2.1703   24.0122 C   0  0  1  0  0  0  0  0  0  0  0  0
    9.8309    0.1079   23.3861 C   0  0  0  0  0  0  0  0  0  0  0  0
    9.1530   -1.9956   22.5233 C   0  0  0  0  0  0  0  0  0  0  0  0
   10.6709   -2.9521   24.1830 C   0  0  0  0  0  0  0  0  0  0  0  0
    9.0779   -0.5497   22.3146 N   0  0  0  0  0  0  0  0  0  0  0  0
    8.4120    0.1018   21.2711 C   0  0  0  0  0  0  0  0  0  0  0  0
    8.8832    1.0925   20.7847 O   0  0  0  0  0  0  0  0  0  0  0  0
    7.2220   -0.3911   20.8044 N   0  0  0  0  0  0  0  0  0  0  0  0
    6.5550    0.2616   19.7591 C   0  0  0  0  0  0  0  0  0  0  0  0
    5.3836    0.9904   19.9547 C   0  0  0  0  0  0  0  0  0  0  0  0
    7.0899    0.1744   18.4781 C   0  0  0  0  0  0  0  0  0  0  0  0
    4.7825    1.6090   18.8627 C   0  0  0  0  0  0  0  0  0  0  0  0
    4.7923    1.1201   21.2085 C   0  0  0  0  0  0  0  0  0  0  0  0
    6.4879    0.7812   17.4439 N   0  0  0  0  0  0  0  0  0  0  0  0
    5.3591    1.4897   17.6017 C   0  0  0  0  0  0  0  0  0  0  0  0
    3.6120    2.3430   19.0292 C   0  0  0  0  0  0  0  0  0  0  0  0
    3.6228    1.8487   21.3950 C   0  0  0  0  0  0  0  0  0  0  0  0
    3.0386    2.4597   20.2908 C   0  0  0  0  0  0  0  0  0  0  0  0
    7.4688   -2.2227   25.5285 H   0  0  0  0  0  0  0  0  0  0  0  0
    6.5311    2.4757   25.8725 H   0  0  0  0  0  0  0  0  0  0  0  0
    8.6102    1.7241   24.9468 H   0  0  0  0  0  0  0  0  0  0  0  0
   10.2548   -0.7277   25.2600 H   0  0  0  0  0  0  0  0  0  0  0  0
    8.6106   -2.6511   24.4361 H   0  0  0  0  0  0  0  0  0  0  0  0
   10.8108    0.1176   23.1871 H   0  0  0  0  0  0  0  0  0  0  0  0
    9.5111    1.0441   23.5319 H   0  0  0  0  0  0  0  0  0  0  0  0
    8.2995   -2.4351   22.2437 H   0  0  0  0  0  0  0  0  0  0  0  0
    9.9141   -2.3857   22.0053 H   0  0  0  0  0  0  0  0  0  0  0  0
   10.5577   -3.8704   23.8038 H   0  0  0  0  0  0  0  0  0  0  0  0
   11.4109   -2.4817   23.7023 H   0  0  0  0  0  0  0  0  0  0  0  0
   10.8944   -3.0183   25.1555 H   0  0  0  0  0  0  0  0  0  0  0  0
    6.8294   -1.2167   21.2097 H   0  0  0  0  0  0  0  0  0  0  0  0
    7.9307   -0.3452   18.3265 H   0  0  0  0  0  0  0  0  0  0  0  0
    5.2202    0.6772   21.9963 H   0  0  0  0  0  0  0  0  0  0  0  0
    4.9323    1.9322   16.8129 H   0  0  0  0  0  0  0  0  0  0  0  0
    3.1834    2.7863   18.2421 H   0  0  0  0  0  0  0  0  0  0  0  0
    3.2111    1.9315   22.3026 H   0  0  0  0  0  0  0  0  0  0  0  0
    2.1976    2.9885   20.4051 H   0  0  0  0  0  0  0  0  0  0  0  0
  1  2  1  0  0  0  0
  2  3  2  0  0  0  0
  2  4  1  0  0  0  0
  3  5  1  0  0  0  0
  3  6  1  0  0  0  0
  4  7  2  0  0  0  0
  6  8  2  0  0  0  0
  7  9  1  0  0  0  0
  9 10  1  0  0  0  0
  9 11  1  0  0  0  0
 10 12  1  0  0  0  0
 10 13  1  0  0  0  0
 11 14  1  0  0  0  0
 14 15  1  0  0  0  0
 15 16  2  0  0  0  0
 15 17  1  0  0  0  0
 17 18  1  0  0  0  0
 18 19  1  0  0  0  0
 18 20  2  0  0  0  0
 19 21  1  0  0  0  0
 19 22  2  0  0  0  0
 20 23  1  0  0  0  0
 21 24  1  0  0  0  0
 21 25  2  0  0  0  0
 22 26  1  0  0  0  0
 25 27  1  0  0  0  0
  7  8  1  0  0  0  0
 12 14  1  0  0  0  0
 23 24  2  0  0  0  0
 26 27  2  0  0  0  0
  4 28  1  0  0  0  0
  6 29  1  0  0  0  0
  8 30  1  0  0  0  0
  9 31  1  0  0  0  0
 10 32  1  0  0  0  0
 11 33  1  0  0  0  0
 11 34  1  0  0  0  0
 12 35  1  0  0  0  0
 12 36  1  0  0  0  0
 13 37  1  0  0  0  0
 13 38  1  0  0  0  0
 13 39  1  0  0  0  0
 17 40  1  0  0  0  0
 20 41  1  0  0  0  0
 22 42  1  0  0  0  0
 24 43  1  0  0  0  0
 25 44  1  0  0  0  0
 26 45  1  0  0  0  0
 27 46  1  0  0  0  0
M  END
> <BIOSOLVEIT.HYDE_ESTIMATED_AFFINITY_LOWER_BOUNDARY [nM]>
2542.940413

> <BIOSOLVEIT.HYDE_ESTIMATED_AFFINITY_UPPER_BOUNDARY [nM]>
252656.165092

> <BIOSOLVEIT.HYDE_LIGAND_EFFICIENCY range: ++, +, 0, -, -->
-

> <BIOSOLVEIT.HYDE_LIGAND_LIPOPHILIC_EFFICIENCY range: ++, +, 0, -, -->
--

> <BIOSOLVEIT.INTER_CLASH range: red, yellow, green>
green

> <BIOSOLVEIT.INTRA_CLASH range: red, yellow, green>
green

> <BIOSOLVEIT.LOGP>
5.809

> <BIOSOLVEIT.MOLECULAR WEIGHT>
400.307

> <BIOSOLVEIT.MOLECULE_CHECKSUM>
LTI2LjIzNDQ7MC45NzE2NDQ=

> <BIOSOLVEIT.TORSION_QUALITY range: red, yellow, green, not rotatable>
green

> <BIOSOLVEIT.TPSA>
45.23

> <BIOSOLVEIT.SEESAR_FAVORITE>
favorite

> <smc_score>
0.563

> <QED_score>
0.59

> <distance>
0.508

> <SimilarityPheSA_1>
0.655

> <Smiles>
CC1CN(C(=O)Nc2cncc3ccccc23)CC1c1ccc(Cl)c(Cl)c1

> <Similarity_SkelSpheres>
0.876

> <Cluster No>
54.0

> <QueryID>
ALP-POS-6d04362c-1

> <SimilarityPheSA>
0.6553

> <Postera series>
3-aminopyridine-like

> <PDB_code>
Mpro-x12419

> <Approach>
DGM_focussed_RL

> <ID>
20210618_117

> <SimilarityPheSA_2>
0.823

> <OPTIBRIUM.logD>
5.26895

> <OPTIBRIUM.BBB category>
+

> <OPTIBRIUM.logP>
5.26895

> <OPTIBRIUM.P-gp category>
no

> <OPTIBRIUM.logS>
-0.826632

> <OPTIBRIUM.HIA category>
+

> <OPTIBRIUM.PPB90 category>
high

> <OPTIBRIUM.2D6 affinity category>
high

> <OPTIBRIUM.hERG pIC50>
5.6988

> <OPTIBRIUM.2C9 pKi>
5.92936

> <OPTIBRIUM.BBB log([brain]:[blood])>
-0.069391

> <OPTIBRIUM.logS @ pH7.4>
-0.826632

$$$$
Compound 36_1_07
haSeeSAR  07122111353D 1   1.00000     0.00000     0
SeeSAR 11.0.2 hazemaj
 46 49  0  0  0  0            999 V2000
    8.9068   -3.2056   27.0704 Cl  0  0  0  0  0  0  0  0  0  0  0  0
    7.7919   -3.8232   25.8280 C   0  0  0  0  0  0  0  0  0  0  0  0
    8.2030   -3.9452   24.5042 C   0  0  0  0  0  0  0  0  0  0  0  0
    6.5026   -4.1810   26.2090 C   0  0  0  0  0  0  0  0  0  0  0  0
    7.3083   -4.4318   23.5558 C   0  0  0  0  0  0  0  0  0  0  0  0
    9.6163   -3.5492   24.1077 C   0  0  0  0  0  0  0  0  0  0  0  0
    5.6231   -4.6657   25.2464 C   0  0  0  0  0  0  0  0  0  0  0  0
    7.7021   -4.5483   22.2903 F   0  0  0  0  0  0  0  0  0  0  0  0
    6.0152   -4.7951   23.9181 C   0  0  0  0  0  0  0  0  0  0  0  0
    9.7084   -2.0843   24.0196 N   0  3  2  0  0  0  0  0  0  0  0  0
    3.9680   -5.1307   25.7069 Cl  0  0  0  0  0  0  0  0  0  0  0  0
    8.6582   -1.5752   23.1349 C   0  0  0  0  0  0  0  0  0  0  0  0
   10.9372   -1.7000   23.3064 C   0  0  0  0  0  0  0  0  0  0  0  0
    9.1514   -0.1867   22.7759 C   0  0  1  0  0  0  0  0  0  0  0  0
   10.6191   -0.4447   22.5161 C   0  0  0  0  0  0  0  0  0  0  0  0
    8.4644    0.3233   21.5190 C   0  0  0  0  0  0  0  0  0  0  0  0
    9.0032    1.1913   20.8322 O   0  0  0  0  0  0  0  0  0  0  0  0
    7.2877   -0.1658   21.1635 N   0  0  0  0  0  0  0  0  0  0  0  0
    6.6550    0.3040   20.0057 C   0  0  0  0  0  0  0  0  0  0  0  0
    5.4716    1.0384   20.0412 C   0  0  0  0  0  0  0  0  0  0  0  0
    7.2379    0.0216   18.7745 C   0  0  0  0  0  0  0  0  0  0  0  0
    4.8951    1.4753   18.8543 C   0  0  0  0  0  0  0  0  0  0  0  0
    4.8276    1.3609   21.2322 C   0  0  0  0  0  0  0  0  0  0  0  0
    6.6655    0.4524   17.6403 N   0  0  0  0  0  0  0  0  0  0  0  0
    5.5266    1.1602   17.6554 C   0  0  0  0  0  0  0  0  0  0  0  0
    3.7136    2.2084   18.9010 C   0  0  0  0  0  0  0  0  0  0  0  0
    3.6464    2.0959   21.2399 C   0  0  0  0  0  0  0  0  0  0  0  0
    3.1247    2.4983   20.0710 N   0  0  0  0  0  0  0  0  0  0  0  0
    6.2122   -4.0911   27.1617 H   0  0  0  0  0  0  0  0  0  0  0  0
    9.8382   -3.9511   23.2193 H   0  0  0  0  0  0  0  0  0  0  0  0
   10.2613   -3.8831   24.7950 H   0  0  0  0  0  0  0  0  0  0  0  0
    5.3762   -5.1447   23.2329 H   0  0  0  0  0  0  0  0  0  0  0  0
    7.7790   -1.5321   23.6095 H   0  0  0  0  0  0  0  0  0  0  0  0
    8.5687   -2.1463   22.3189 H   0  0  0  0  0  0  0  0  0  0  0  0
   11.2183   -2.4332   22.6875 H   0  0  0  0  0  0  0  0  0  0  0  0
   11.6708   -1.5166   23.9610 H   0  0  0  0  0  0  0  0  0  0  0  0
    9.0264    0.4485   23.5380 H   0  0  0  0  0  0  0  0  0  0  0  0
   10.7837   -0.5914   21.5407 H   0  0  0  0  0  0  0  0  0  0  0  0
   11.1738    0.3233   22.8361 H   0  0  0  0  0  0  0  0  0  0  0  0
    6.8501   -0.8709   21.7213 H   0  0  0  0  0  0  0  0  0  0  0  0
    8.0872   -0.5048   18.7348 H   0  0  0  0  0  0  0  0  0  0  0  0
    5.2219    1.0582   22.0999 H   0  0  0  0  0  0  0  0  0  0  0  0
    5.1252    1.4660   16.7921 H   0  0  0  0  0  0  0  0  0  0  0  0
    3.2965    2.5244   18.0488 H   0  0  0  0  0  0  0  0  0  0  0  0
    3.1934    2.3207   22.1026 H   0  0  0  0  0  0  0  0  0  0  0  0
    9.6624   -1.6599   24.9239 H   0  0  0  0  0  0  0  0  0  0  0  0
  1  2  1  0  0  0  0
  2  3  2  0  0  0  0
  2  4  1  0  0  0  0
  3  5  1  0  0  0  0
  3  6  1  0  0  0  0
  4  7  2  0  0  0  0
  5  8  1  0  0  0  0
  5  9  2  0  0  0  0
  6 10  1  0  0  0  0
  7 11  1  0  0  0  0
 10 12  1  0  0  0  0
 10 13  1  0  0  0  0
 12 14  1  0  0  0  0
 13 15  1  0  0  0  0
 14 16  1  0  0  0  0
 16 17  2  0  0  0  0
 16 18  1  0  0  0  0
 18 19  1  0  0  0  0
 19 20  1  0  0  0  0
 19 21  2  0  0  0  0
 20 22  1  0  0  0  0
 20 23  2  0  0  0  0
 21 24  1  0  0  0  0
 22 25  1  0  0  0  0
 22 26  2  0  0  0  0
 23 27  1  0  0  0  0
 26 28  1  0  0  0  0
  7  9  1  0  0  0  0
 14 15  1  0  0  0  0
 24 25  2  0  0  0  0
 27 28  2  0  0  0  0
  4 29  1  0  0  0  0
  6 30  1  0  0  0  0
  6 31  1  0  0  0  0
  9 32  1  0  0  0  0
 12 33  1  0  0  0  0
 12 34  1  0  0  0  0
 13 35  1  0  0  0  0
 13 36  1  0  0  0  0
 14 37  1  0  0  0  0
 15 38  1  0  0  0  0
 15 39  1  0  0  0  0
 18 40  1  0  0  0  0
 21 41  1  0  0  0  0
 23 42  1  0  0  0  0
 25 43  1  0  0  0  0
 26 44  1  0  0  0  0
 27 45  1  0  0  0  0
 10 46  1  0  0  0  0
M  CHG  1  10   1
M  END
> <BIOSOLVEIT.HYDE_ESTIMATED_AFFINITY_LOWER_BOUNDARY [nM]>
2794.668348

> <BIOSOLVEIT.HYDE_ESTIMATED_AFFINITY_UPPER_BOUNDARY [nM]>
277666.823810

> <BIOSOLVEIT.HYDE_LIGAND_EFFICIENCY range: ++, +, 0, -, -->
-

> <BIOSOLVEIT.HYDE_LIGAND_LIPOPHILIC_EFFICIENCY range: ++, +, 0, -, -->
--

> <BIOSOLVEIT.INTER_CLASH range: red, yellow, green>
green

> <BIOSOLVEIT.INTRA_CLASH range: red, yellow, green>
green

> <BIOSOLVEIT.LOGP>
3.1192

> <BIOSOLVEIT.MOLECULAR WEIGHT>
420.293

> <BIOSOLVEIT.MOLECULE_CHECKSUM>
LTI2LjAwMDQ7MC45Mjg1ODY=

> <BIOSOLVEIT.TORSION_QUALITY range: red, yellow, green, not rotatable>
green

> <BIOSOLVEIT.TPSA>
59.32

> <BIOSOLVEIT.SEESAR_FAVORITE>
favorite

> <smc_score>
0.688

> <QED_score>
0.675

> <distance>
0.541

> <SimilarityPheSA_1>
0.638

> <Smiles>
O=C(Nc1cncc2cnccc12)C1CCN(Cc2c(F)cc(Cl)cc2Cl)C1

> <Similarity_SkelSpheres>
0.775

> <Cluster No>
18.0

> <QueryID>
MAT-POS-bb423b95-1

> <SimilarityPheSA>
0.6383

> <Postera series>
3-aminopyridine-like

> <PDB_code>
Mpro-x11542

> <Approach>
DGM_focussed_RL

> <ID>
20210618_35

> <SimilarityPheSA_2>
0.741

> <OPTIBRIUM.logD>
2.60539

> <OPTIBRIUM.BBB category>
-

> <OPTIBRIUM.logP>
2.51247

> <OPTIBRIUM.P-gp category>
yes

> <OPTIBRIUM.logS>
1.20941

> <OPTIBRIUM.HIA category>
+

> <OPTIBRIUM.PPB90 category>
high

> <OPTIBRIUM.2D6 affinity category>
high

> <OPTIBRIUM.hERG pIC50>
5.15418

> <OPTIBRIUM.2C9 pKi>
5.54286

> <OPTIBRIUM.BBB log([brain]:[blood])>
-0.502723

> <OPTIBRIUM.logS @ pH7.4>
1.8643

$$$$
Compound 555_1_04
haSeeSAR  07122111353D 1   1.00000     0.00000     0
SeeSAR 11.0.2 hazemaj
 53 57  0  0  0  0            999 V2000
    6.6928    5.3387   25.5896 Cl  0  0  0  0  0  0  0  0  0  0  0  0
    7.1984    3.7730   26.2657 C   0  0  0  0  0  0  0  0  0  0  0  0
    7.7509    3.7131   27.5382 C   0  0  0  0  0  0  0  0  0  0  0  0
    7.0419    2.6232   25.5016 C   0  0  0  0  0  0  0  0  0  0  0  0
    7.9462    5.1990   28.4972 Cl  0  0  0  0  0  0  0  0  0  0  0  0
    8.1558    2.4877   28.0607 C   0  0  0  0  0  0  0  0  0  0  0  0
    7.4474    1.4024   26.0275 C   0  0  0  0  0  0  0  0  0  0  0  0
    8.0154    1.3401   27.2939 C   0  0  0  0  0  0  0  0  0  0  0  0
    7.3574    0.1045   25.2405 C   0  0  0  0  0  0  0  0  0  0  0  0
    8.5156    0.0087   27.8240 C   0  0  0  0  0  0  0  0  0  0  0  0
    8.7381   -0.5261   25.3101 C   0  0  2  0  0  0  0  0  0  0  0  0
    9.3552   -0.6031   26.7083 C   0  0  0  0  0  0  0  0  0  0  0  0
    9.7239    0.2242   24.4281 C   0  0  0  0  0  0  0  0  0  0  0  0
   10.0198   -0.5990   23.1851 C   0  0  0  0  0  0  0  0  0  0  0  0
    8.8017   -0.7147   22.3732 N   0  0  0  0  0  0  0  0  0  0  0  0
    8.4331    0.1312   21.3296 C   0  0  0  0  0  0  0  0  0  0  0  0
    7.7650   -1.7368   22.5816 C   0  0  0  0  0  0  0  0  0  0  0  0
    9.0543    1.1285   20.9745 O   0  0  0  0  0  0  0  0  0  0  0  0
    7.2561   -0.3319   20.7523 N   0  0  0  0  0  0  0  0  0  0  0  0
    6.8575   -1.5972   21.3718 C   0  0  0  0  0  0  0  0  0  0  0  0
    6.5637    0.3018   19.7118 C   0  0  0  0  0  0  0  0  0  0  0  0
    5.3912    1.0250   19.9195 C   0  0  0  0  0  0  0  0  0  0  0  0
    7.0717    0.2019   18.4210 C   0  0  0  0  0  0  0  0  0  0  0  0
    4.7512    1.6308   18.8428 C   0  0  0  0  0  0  0  0  0  0  0  0
    4.8301    1.1626   21.1867 C   0  0  0  0  0  0  0  0  0  0  0  0
    6.4412    0.7931   17.3952 N   0  0  0  0  0  0  0  0  0  0  0  0
    5.3112    1.4927   17.5771 C   0  0  0  0  0  0  0  0  0  0  0  0
    3.5786    2.3580   19.0208 C   0  0  0  0  0  0  0  0  0  0  0  0
    3.6593    1.8844   21.3928 C   0  0  0  0  0  0  0  0  0  0  0  0
    3.0409    2.4787   20.2977 C   0  0  0  0  0  0  0  0  0  0  0  0
    6.6428    2.6734   24.5861 H   0  0  0  0  0  0  0  0  0  0  0  0
    8.5443    2.4353   28.9806 H   0  0  0  0  0  0  0  0  0  0  0  0
    7.1086    0.2913   24.2901 H   0  0  0  0  0  0  0  0  0  0  0  0
    6.6771   -0.5034   25.6499 H   0  0  0  0  0  0  0  0  0  0  0  0
    7.7445   -0.5883   28.0451 H   0  0  0  0  0  0  0  0  0  0  0  0
    9.0741    0.1486   28.6416 H   0  0  0  0  0  0  0  0  0  0  0  0
    8.6644   -1.4592   24.9583 H   0  0  0  0  0  0  0  0  0  0  0  0
    9.5052   -1.5672   26.9274 H   0  0  0  0  0  0  0  0  0  0  0  0
   10.2337   -0.1259   26.6853 H   0  0  0  0  0  0  0  0  0  0  0  0
   10.5721    0.3803   24.9342 H   0  0  0  0  0  0  0  0  0  0  0  0
    9.3292    1.1030   24.1599 H   0  0  0  0  0  0  0  0  0  0  0  0
   10.3285   -1.5110   23.4550 H   0  0  0  0  0  0  0  0  0  0  0  0
   10.7354   -0.1496   22.6502 H   0  0  0  0  0  0  0  0  0  0  0  0
    7.2594   -1.5623   23.4265 H   0  0  0  0  0  0  0  0  0  0  0  0
    8.1697   -2.6505   22.6179 H   0  0  0  0  0  0  0  0  0  0  0  0
    5.8982   -1.5656   21.6523 H   0  0  0  0  0  0  0  0  0  0  0  0
    6.9946   -2.3587   20.7383 H   0  0  0  0  0  0  0  0  0  0  0  0
    7.9123   -0.3140   18.2565 H   0  0  0  0  0  0  0  0  0  0  0  0
    5.2806    0.7315   21.9685 H   0  0  0  0  0  0  0  0  0  0  0  0
    4.8648    1.9211   16.7914 H   0  0  0  0  0  0  0  0  0  0  0  0
    3.1275    2.7890   18.2394 H   0  0  0  0  0  0  0  0  0  0  0  0
    3.2698    1.9742   22.3096 H   0  0  0  0  0  0  0  0  0  0  0  0
    2.1980    3.0002   20.4305 H   0  0  0  0  0  0  0  0  0  0  0  0
  1  2  1  0  0  0  0
  2  3  2  0  0  0  0
  2  4  1  0  0  0  0
  3  5  1  0  0  0  0
  3  6  1  0  0  0  0
  4  7  2  0  0  0  0
  6  8  2  0  0  0  0
  7  9  1  0  0  0  0
  8 10  1  0  0  0  0
  9 11  1  0  0  0  0
 10 12  1  0  0  0  0
 11 13  1  0  0  0  0
 13 14  1  0  0  0  0
 14 15  1  0  0  0  0
 15 16  1  0  0  0  0
 15 17  1  0  0  0  0
 16 18  2  0  0  0  0
 16 19  1  0  0  0  0
 17 20  1  0  0  0  0
 19 21  1  0  0  0  0
 21 22  1  0  0  0  0
 21 23  2  0  0  0  0
 22 24  1  0  0  0  0
 22 25  2  0  0  0  0
 23 26  1  0  0  0  0
 24 27  1  0  0  0  0
 24 28  2  0  0  0  0
 25 29  1  0  0  0  0
 28 30  1  0  0  0  0
  7  8  1  0  0  0  0
 11 12  1  0  0  0  0
 19 20  1  0  0  0  0
 26 27  2  0  0  0  0
 29 30  2  0  0  0  0
  4 31  1  0  0  0  0
  6 32  1  0  0  0  0
  9 33  1  0  0  0  0
  9 34  1  0  0  0  0
 10 35  1  0  0  0  0
 10 36  1  0  0  0  0
 11 37  1  0  0  0  0
 12 38  1  0  0  0  0
 12 39  1  0  0  0  0
 13 40  1  0  0  0  0
 13 41  1  0  0  0  0
 14 42  1  0  0  0  0
 14 43  1  0  0  0  0
 17 44  1  0  0  0  0
 17 45  1  0  0  0  0
 20 46  1  0  0  0  0
 20 47  1  0  0  0  0
 23 48  1  0  0  0  0
 25 49  1  0  0  0  0
 27 50  1  0  0  0  0
 28 51  1  0  0  0  0
 29 52  1  0  0  0  0
 30 53  1  0  0  0  0
M  END
> <BIOSOLVEIT.HYDE_ESTIMATED_AFFINITY_LOWER_BOUNDARY [nM]>
3065.441431

> <BIOSOLVEIT.HYDE_ESTIMATED_AFFINITY_UPPER_BOUNDARY [nM]>
304569.730528

> <BIOSOLVEIT.HYDE_LIGAND_EFFICIENCY range: ++, +, 0, -, -->
-

> <BIOSOLVEIT.HYDE_LIGAND_LIPOPHILIC_EFFICIENCY range: ++, +, 0, -, -->
--

> <BIOSOLVEIT.INTER_CLASH range: red, yellow, green>
green

> <BIOSOLVEIT.INTRA_CLASH range: red, yellow, green>
green

> <BIOSOLVEIT.LOGP>
5.9788

> <BIOSOLVEIT.MOLECULAR WEIGHT>
440.372

> <BIOSOLVEIT.MOLECULE_CHECKSUM>
LTI1Ljc3MTE7MC44NTkwMzg=

> <BIOSOLVEIT.TORSION_QUALITY range: red, yellow, green, not rotatable>
yellow

> <BIOSOLVEIT.TPSA>
36.44

> <BIOSOLVEIT.SEESAR_FAVORITE>
favorite

> <smc_score>
0.688

> <QED_score>
0.501

> <distance>
0.529

> <SimilarityPheSA_1>
0.686

> <Smiles>
O=C1N(CCC2CCc3cc(Cl)c(Cl)cc3C2)CCN1c1cncc2ccccc12

> <Similarity_SkelSpheres>
0.763

> <Cluster No>
297.0

> <QueryID>
PET-UNK-c9c1e0d8-3

> <SimilarityPheSA>
0.6862

> <Postera series>
3-aminopyridine-like

> <PDB_code>
Mpro-x12587

> <Approach>
DGM_focussed_RL

> <ID>
20210618_554

> <SimilarityPheSA_2>
0.798

> <OPTIBRIUM.logD>
5.63807

> <OPTIBRIUM.BBB category>
+

> <OPTIBRIUM.logP>
5.63807

> <OPTIBRIUM.P-gp category>
yes

> <OPTIBRIUM.logS>
-0.611183

> <OPTIBRIUM.HIA category>
+

> <OPTIBRIUM.PPB90 category>
high

> <OPTIBRIUM.2D6 affinity category>
medium

> <OPTIBRIUM.hERG pIC50>
6.18332

> <OPTIBRIUM.2C9 pKi>
5.70681

> <OPTIBRIUM.BBB log([brain]:[blood])>
0.0866107

> <OPTIBRIUM.logS @ pH7.4>
-0.611183

$$$$
Compound 115_1_003
haSeeSAR  07122111353D 1   1.00000     0.00000     0
SeeSAR 11.0.2 hazemaj
 54 57  0  0  0  0            999 V2000
    8.5665   -0.4630   26.7130 Cl  0  0  0  0  0  0  0  0  0  0  0  0
    7.8900    1.0672   26.1054 C   0  0  0  0  0  0  0  0  0  0  0  0
    7.7015    2.1436   26.9661 C   0  0  0  0  0  0  0  0  0  0  0  0
    7.5462    1.1915   24.7628 C   0  0  0  0  0  0  0  0  0  0  0  0
    8.1431    1.9760   28.6822 Cl  0  0  0  0  0  0  0  0  0  0  0  0
    7.1734    3.3430   26.4994 C   0  0  0  0  0  0  0  0  0  0  0  0
    7.0181    2.3880   24.2882 C   0  0  0  0  0  0  0  0  0  0  0  0
    7.7484    0.0208   23.8143 C   0  0  0  0  0  0  0  0  0  0  0  0
    6.8337    3.4592   25.1557 C   0  0  0  0  0  0  0  0  0  0  0  0
    8.7329    0.3875   22.7862 N   0  0  0  0  0  0  0  0  0  0  0  0
    8.3793    0.4147   21.5115 C   0  0  0  0  0  0  0  0  0  0  0  0
   10.1103    0.7239   23.1741 C   0  0  0  0  0  0  0  0  0  0  0  0
    8.9238    1.2029   20.7385 O   0  0  0  0  0  0  0  0  0  0  0  0
    7.3007   -0.5271   21.0018 C   0  0  0  0  0  0  0  0  0  0  0  0
   10.7255   -0.4461   23.9244 C   0  0  1  0  0  0  0  0  0  0  0  0
    6.5684    0.1231   19.8383 C   0  0  0  0  0  0  0  0  0  0  0  0
   11.2066   -1.5512   22.9954 C   0  0  0  0  0  0  0  0  0  0  0  0
   11.9245   -0.0391   24.7673 C   0  0  0  0  0  0  0  0  0  0  0  0
    5.4336    0.9164   20.0068 C   0  0  0  0  0  0  0  0  0  0  0  0
    7.0634   -0.0897   18.5551 C   0  0  0  0  0  0  0  0  0  0  0  0
   12.4365   -1.1264   22.2079 C   0  0  0  0  0  0  0  0  0  0  0  0
   12.9341    0.6816   23.8874 C   0  0  0  0  0  0  0  0  0  0  0  0
    4.8133    1.4823   18.8963 C   0  0  0  0  0  0  0  0  0  0  0  0
    4.8874    1.1702   21.2630 C   0  0  0  0  0  0  0  0  0  0  0  0
    6.4494    0.4645   17.4987 N   0  0  0  0  0  0  0  0  0  0  0  0
   12.7270   -1.6817   21.1636 O   0  0  0  0  0  0  0  0  0  0  0  0
   13.2443   -0.0732   22.6601 N   0  0  0  0  0  0  0  0  0  0  0  0
    5.3576    1.2307   17.6406 C   0  0  0  0  0  0  0  0  0  0  0  0
    3.6813    2.2798   19.0319 C   0  0  0  0  0  0  0  0  0  0  0  0
    3.7567    1.9622   21.4289 C   0  0  0  0  0  0  0  0  0  0  0  0
    3.1597    2.5145   20.2997 C   0  0  0  0  0  0  0  0  0  0  0  0
    7.0396    4.1132   27.1232 H   0  0  0  0  0  0  0  0  0  0  0  0
    6.7713    2.4778   23.3232 H   0  0  0  0  0  0  0  0  0  0  0  0
    6.8788   -0.2076   23.3768 H   0  0  0  0  0  0  0  0  0  0  0  0
    8.0813   -0.7703   24.3275 H   0  0  0  0  0  0  0  0  0  0  0  0
    6.4544    4.3181   24.8113 H   0  0  0  0  0  0  0  0  0  0  0  0
   10.1026    1.5312   23.7643 H   0  0  0  0  0  0  0  0  0  0  0  0
   10.6502    0.9153   22.3545 H   0  0  0  0  0  0  0  0  0  0  0  0
    6.6519   -0.7204   21.7378 H   0  0  0  0  0  0  0  0  0  0  0  0
    7.7213   -1.3811   20.6955 H   0  0  0  0  0  0  0  0  0  0  0  0
   10.0301   -0.8288   24.5327 H   0  0  0  0  0  0  0  0  0  0  0  0
   10.4735   -1.7781   22.3543 H   0  0  0  0  0  0  0  0  0  0  0  0
   11.4336   -2.3577   23.5412 H   0  0  0  0  0  0  0  0  0  0  0  0
   12.3475   -0.8545   25.1627 H   0  0  0  0  0  0  0  0  0  0  0  0
   11.6255    0.5706   25.5015 H   0  0  0  0  0  0  0  0  0  0  0  0
    7.8767   -0.6557   18.4204 H   0  0  0  0  0  0  0  0  0  0  0  0
   13.7785    0.8122   24.4070 H   0  0  0  0  0  0  0  0  0  0  0  0
   12.5593    1.5726   23.6312 H   0  0  0  0  0  0  0  0  0  0  0  0
    5.3219    0.7706   22.0702 H   0  0  0  0  0  0  0  0  0  0  0  0
   14.0573    0.1738   22.1327 H   0  0  0  0  0  0  0  0  0  0  0  0
    4.9273    1.6279   16.8300 H   0  0  0  0  0  0  0  0  0  0  0  0
    3.2468    2.6807   18.2253 H   0  0  0  0  0  0  0  0  0  0  0  0
    3.3806    2.1312   22.3399 H   0  0  0  0  0  0  0  0  0  0  0  0
    2.3460    3.0868   20.4010 H   0  0  0  0  0  0  0  0  0  0  0  0
  1  2  1  0  0  0  0
  2  3  2  0  0  0  0
  2  4  1  0  0  0  0
  3  5  1  0  0  0  0
  3  6  1  0  0  0  0
  4  7  2  0  0  0  0
  4  8  1  0  0  0  0
  6  9  2  0  0  0  0
  8 10  1  0  0  0  0
 10 11  1  0  0  0  0
 10 12  1  0  0  0  0
 11 13  2  0  0  0  0
 11 14  1  0  0  0  0
 12 15  1  0  0  0  0
 14 16  1  0  0  0  0
 15 17  1  0  0  0  0
 15 18  1  0  0  0  0
 16 19  1  0  0  0  0
 16 20  2  0  0  0  0
 17 21  1  0  0  0  0
 18 22  1  0  0  0  0
 19 23  1  0  0  0  0
 19 24  2  0  0  0  0
 20 25  1  0  0  0  0
 21 26  2  0  0  0  0
 21 27  1  0  0  0  0
 23 28  1  0  0  0  0
 23 29  2  0  0  0  0
 24 30  1  0  0  0  0
 29 31  1  0  0  0  0
  7  9  1  0  0  0  0
 22 27  1  0  0  0  0
 25 28  2  0  0  0  0
 30 31  2  0  0  0  0
  6 32  1  0  0  0  0
  7 33  1  0  0  0  0
  8 34  1  0  0  0  0
  8 35  1  0  0  0  0
  9 36  1  0  0  0  0
 12 37  1  0  0  0  0
 12 38  1  0  0  0  0
 14 39  1  0  0  0  0
 14 40  1  0  0  0  0
 15 41  1  0  0  0  0
 17 42  1  0  0  0  0
 17 43  1  0  0  0  0
 18 44  1  0  0  0  0
 18 45  1  0  0  0  0
 20 46  1  0  0  0  0
 22 47  1  0  0  0  0
 22 48  1  0  0  0  0
 24 49  1  0  0  0  0
 27 50  1  0  0  0  0
 28 51  1  0  0  0  0
 29 52  1  0  0  0  0
 30 53  1  0  0  0  0
 31 54  1  0  0  0  0
M  END
> <BIOSOLVEIT.HYDE_ESTIMATED_AFFINITY_LOWER_BOUNDARY [nM]>
3632.708540

> <BIOSOLVEIT.HYDE_ESTIMATED_AFFINITY_UPPER_BOUNDARY [nM]>
360931.071708

> <BIOSOLVEIT.HYDE_LIGAND_EFFICIENCY range: ++, +, 0, -, -->
--

> <BIOSOLVEIT.HYDE_LIGAND_LIPOPHILIC_EFFICIENCY range: ++, +, 0, -, -->
--

> <BIOSOLVEIT.INTER_CLASH range: red, yellow, green>
green

> <BIOSOLVEIT.INTRA_CLASH range: red, yellow, green>
green

> <BIOSOLVEIT.LOGP>
4.6391

> <BIOSOLVEIT.MOLECULAR WEIGHT>
456.371

> <BIOSOLVEIT.MOLECULE_CHECKSUM>
LTI1LjM1MDM7MC44MTc3NQ==

> <BIOSOLVEIT.TORSION_QUALITY range: red, yellow, green, not rotatable>
green

> <BIOSOLVEIT.TPSA>
62.3

> <BIOSOLVEIT.SEESAR_FAVORITE>
favorite

> <smc_score>
0.563

> <QED_score>
0.588

> <distance>
0.577

> <SimilarityPheSA_1>
0.637

> <Smiles>
O=C1CC(CN(Cc2cccc(Cl)c2Cl)C(=O)Cc2cncc3ccccc23)CCN1

> <Similarity_SkelSpheres>
0.752

> <Cluster No>
53.0

> <QueryID>
ALP-POS-c59291d4-4

> <SimilarityPheSA>
0.6367

> <Postera series>
3-aminopyridine-like

> <PDB_code>
Mpro-x10820

> <Approach>
DGM_focussed_RL

> <ID>
20210618_114

> <SimilarityPheSA_2>
0.708

> <OPTIBRIUM.logD>
3.63568

> <OPTIBRIUM.BBB category>
-

> <OPTIBRIUM.logP>
3.63568

> <OPTIBRIUM.P-gp category>
yes

> <OPTIBRIUM.logS>
0.933199

> <OPTIBRIUM.HIA category>
+

> <OPTIBRIUM.PPB90 category>
high

> <OPTIBRIUM.2D6 affinity category>
high

> <OPTIBRIUM.hERG pIC50>
5.21475

> <OPTIBRIUM.2C9 pKi>
5.6623

> <OPTIBRIUM.BBB log([brain]:[blood])>
-0.305748

> <OPTIBRIUM.logS @ pH7.4>
0.933199

$$$$
Compound 715_1_09
haSeeSAR  07122111353D 1   1.00000     0.00000     0
SeeSAR 11.0.2 hazemaj
 40 43  0  0  0  0            999 V2000
   12.2293    0.3070   25.1143 Cl  0  0  0  0  0  0  0  0  0  0  0  0
   10.5150    0.1453   25.5660 C   0  0  0  0  0  0  0  0  0  0  0  0
    9.5648   -0.2169   24.6170 C   0  0  0  0  0  0  0  0  0  0  0  0
   10.1395    0.3871   26.8834 C   0  0  0  0  0  0  0  0  0  0  0  0
    8.2287   -0.3400   24.9833 C   0  0  0  0  0  0  0  0  0  0  0  0
    9.9865   -0.4789   23.1800 C   0  0  0  0  0  0  0  0  0  0  0  0
    8.8017    0.2622   27.2437 C   0  0  0  0  0  0  0  0  0  0  0  0
    7.8475   -0.1001   26.2992 C   0  0  0  0  0  0  0  0  0  0  0  0
    8.7907   -0.6707   22.3453 N   0  0  0  0  0  0  0  0  0  0  0  0
    8.3716    0.1614   21.3110 C   0  0  0  0  0  0  0  0  0  0  0  0
    7.8430   -1.7691   22.5321 C   0  0  0  0  0  0  0  0  0  0  0  0
    8.9380    1.1882   20.9841 O   0  0  0  0  0  0  0  0  0  0  0  0
    7.2222   -0.3742   20.7192 N   0  0  0  0  0  0  0  0  0  0  0  0
    6.9032   -1.6640   21.3440 C   0  0  0  0  0  0  0  0  0  0  0  0
    6.4928    0.2226   19.6825 C   0  0  0  0  0  0  0  0  0  0  0  0
    5.4097    1.0678   19.9161 C   0  0  0  0  0  0  0  0  0  0  0  0
    6.8694   -0.0430   18.3704 C   0  0  0  0  0  0  0  0  0  0  0  0
    4.7295    1.6268   18.8390 C   0  0  0  0  0  0  0  0  0  0  0  0
    4.9740    1.3804   21.2000 C   0  0  0  0  0  0  0  0  0  0  0  0
    6.2003    0.5063   17.3458 N   0  0  0  0  0  0  0  0  0  0  0  0
    5.1555    1.3221   17.5501 C   0  0  0  0  0  0  0  0  0  0  0  0
    3.6460    2.4737   19.0472 C   0  0  0  0  0  0  0  0  0  0  0  0
    3.8913    2.2260   21.4181 C   0  0  0  0  0  0  0  0  0  0  0  0
    3.2184    2.7801   20.3346 C   0  0  0  0  0  0  0  0  0  0  0  0
    3.3944    2.5769   23.0906 Cl  0  0  0  0  0  0  0  0  0  0  0  0
   10.8240    0.6481   27.5642 H   0  0  0  0  0  0  0  0  0  0  0  0
    7.5441   -0.6004   24.3026 H   0  0  0  0  0  0  0  0  0  0  0  0
   10.5539   -1.3015   23.1438 H   0  0  0  0  0  0  0  0  0  0  0  0
   10.5096    0.3020   22.8385 H   0  0  0  0  0  0  0  0  0  0  0  0
    8.5241    0.4343   28.1889 H   0  0  0  0  0  0  0  0  0  0  0  0
    6.8878   -0.1880   26.5659 H   0  0  0  0  0  0  0  0  0  0  0  0
    7.3415   -1.6614   23.3905 H   0  0  0  0  0  0  0  0  0  0  0  0
    8.3172   -2.6496   22.5312 H   0  0  0  0  0  0  0  0  0  0  0  0
    5.9504   -1.6816   21.6471 H   0  0  0  0  0  0  0  0  0  0  0  0
    7.0628   -2.4142   20.7024 H   0  0  0  0  0  0  0  0  0  0  0  0
    7.6449   -0.6479   18.1893 H   0  0  0  0  0  0  0  0  0  0  0  0
    5.4514    0.9873   21.9857 H   0  0  0  0  0  0  0  0  0  0  0  0
    4.6764    1.7163   16.7659 H   0  0  0  0  0  0  0  0  0  0  0  0
    3.1687    2.8671   18.2615 H   0  0  0  0  0  0  0  0  0  0  0  0
    2.4388    3.3895   20.4791 H   0  0  0  0  0  0  0  0  0  0  0  0
  1  2  1  0  0  0  0
  2  3  2  0  0  0  0
  2  4  1  0  0  0  0
  3  5  1  0  0  0  0
  3  6  1  0  0  0  0
  4  7  2  0  0  0  0
  5  8  2  0  0  0  0
  6  9  1  0  0  0  0
  9 10  1  0  0  0  0
  9 11  1  0  0  0  0
 10 12  2  0  0  0  0
 10 13  1  0  0  0  0
 11 14  1  0  0  0  0
 13 15  1  0  0  0  0
 15 16  1  0  0  0  0
 15 17  2  0  0  0  0
 16 18  1  0  0  0  0
 16 19  2  0  0  0  0
 17 20  1  0  0  0  0
 18 21  1  0  0  0  0
 18 22  2  0  0  0  0
 19 23  1  0  0  0  0
 22 24  1  0  0  0  0
 23 25  1  0  0  0  0
  7  8  1  0  0  0  0
 13 14  1  0  0  0  0
 20 21  2  0  0  0  0
 23 24  2  0  0  0  0
  4 26  1  0  0  0  0
  5 27  1  0  0  0  0
  6 28  1  0  0  0  0
  6 29  1  0  0  0  0
  7 30  1  0  0  0  0
  8 31  1  0  0  0  0
 11 32  1  0  0  0  0
 11 33  1  0  0  0  0
 14 34  1  0  0  0  0
 14 35  1  0  0  0  0
 17 36  1  0  0  0  0
 19 37  1  0  0  0  0
 21 38  1  0  0  0  0
 22 39  1  0  0  0  0
 24 40  1  0  0  0  0
M  END
> <BIOSOLVEIT.HYDE_ESTIMATED_AFFINITY_LOWER_BOUNDARY [nM]>
4030.250461

> <BIOSOLVEIT.HYDE_ESTIMATED_AFFINITY_UPPER_BOUNDARY [nM]>
400429.211984

> <BIOSOLVEIT.HYDE_LIGAND_EFFICIENCY range: ++, +, 0, -, -->
-

> <BIOSOLVEIT.HYDE_LIGAND_LIPOPHILIC_EFFICIENCY range: ++, +, 0, -, -->
--

> <BIOSOLVEIT.INTER_CLASH range: red, yellow, green>
green

> <BIOSOLVEIT.INTRA_CLASH range: red, yellow, green>
red

> <BIOSOLVEIT.LOGP>
4.9838

> <BIOSOLVEIT.MOLECULAR WEIGHT>
372.254

> <BIOSOLVEIT.MOLECULE_CHECKSUM>
LTI1LjA5Mjg7MS4wMDM3MQ==

> <BIOSOLVEIT.TORSION_QUALITY range: red, yellow, green, not rotatable>
green

> <BIOSOLVEIT.TPSA>
36.44

> <BIOSOLVEIT.SEESAR_FAVORITE>
favorite

> <smc_score>
0.563

> <QED_score>
0.65

> <distance>
0.578

> <SimilarityPheSA_1>
0.766

> <Smiles>
O=C1N(Cc2ccccc2Cl)CCN1c1cncc2ccc(Cl)cc12

> <Similarity_SkelSpheres>
0.732

> <Cluster No>
405.0

> <QueryID>
PET-UNK-c9c1e0d8-3

> <SimilarityPheSA>
0.7662

> <Postera series>
3-aminopyridine-like

> <PDB_code>
Mpro-x12587

> <Approach>
DGM_focussed_RL

> <ID>
20210618_714

> <SimilarityPheSA_2>
0.938

> <OPTIBRIUM.logD>
4.28612

> <OPTIBRIUM.BBB category>
+

> <OPTIBRIUM.logP>
4.28612

> <OPTIBRIUM.P-gp category>
no

> <OPTIBRIUM.logS>
-0.0690537

> <OPTIBRIUM.HIA category>
+

> <OPTIBRIUM.PPB90 category>
high

> <OPTIBRIUM.2D6 affinity category>
medium

> <OPTIBRIUM.hERG pIC50>
5.60476

> <OPTIBRIUM.2C9 pKi>
5.70523

> <OPTIBRIUM.BBB log([brain]:[blood])>
0.0777893

> <OPTIBRIUM.logS @ pH7.4>
-0.0690537

$$$$
Compound 687_1_1
haSeeSAR  07122111353D 1   1.00000     0.00000     0
SeeSAR 11.0.2 hazemaj
 34 37  0  0  0  0            999 V2000
    2.4438    3.5948   18.5967 Cl  0  0  0  0  0  0  0  0  0  0  0  0
    3.6572    2.3670   19.0326 C   0  0  0  0  0  0  0  0  0  0  0  0
    3.5313    1.6952   20.2435 C   0  0  0  0  0  0  0  0  0  0  0  0
    4.7281    2.0624   18.1975 C   0  0  0  0  0  0  0  0  0  0  0  0
    2.1848    2.0528   21.3503 Cl  0  0  0  0  0  0  0  0  0  0  0  0
    4.4672    0.7299   20.5984 C   0  0  0  0  0  0  0  0  0  0  0  0
    5.6715    1.0995   18.5436 C   0  0  0  0  0  0  0  0  0  0  0  0
    5.5256    0.4426   19.7426 C   0  0  0  0  0  0  0  0  0  0  0  0
    6.7769    0.6538   17.9220 O   0  0  0  0  0  0  0  0  0  0  0  0
    6.6631   -0.5454   19.8922 C   0  0  1  0  0  0  0  0  0  0  0  0
    7.0412   -0.6386   18.4297 C   0  0  0  0  0  0  0  0  0  0  0  0
    7.8072    0.0144   20.7246 C   0  0  0  0  0  0  0  0  0  0  0  0
    8.4774    0.9128   20.2960 O   0  0  0  0  0  0  0  0  0  0  0  0
    8.0722   -0.5073   21.9633 N   0  0  0  0  0  0  0  0  0  0  0  0
    9.0876   -0.0105   22.7020 N   0  0  0  0  0  0  0  0  0  0  0  0
   10.4086   -0.2855   22.5026 C   0  0  0  0  0  0  0  0  0  0  0  0
    8.9412    0.8388   23.7596 C   0  0  0  0  0  0  0  0  0  0  0  0
   11.0717    0.4261   23.4764 C   0  0  0  0  0  0  0  0  0  0  0  0
   11.1735   -1.0530   21.6226 C   0  0  0  0  0  0  0  0  0  0  0  0
   10.1429    1.1010   24.2193 N   0  0  0  0  0  0  0  0  0  0  0  0
   12.4605    0.3659   23.5499 C   0  0  0  0  0  0  0  0  0  0  0  0
   12.5658   -1.1335   21.6770 C   0  0  0  0  0  0  0  0  0  0  0  0
   13.0911    1.0644   24.4902 F   0  0  0  0  0  0  0  0  0  0  0  0
   13.2136   -0.4014   22.6670 C   0  0  0  0  0  0  0  0  0  0  0  0
   13.2891   -1.8733   20.8303 F   0  0  0  0  0  0  0  0  0  0  0  0
    4.8220    2.5469   17.3280 H   0  0  0  0  0  0  0  0  0  0  0  0
    4.3796    0.2432   21.4675 H   0  0  0  0  0  0  0  0  0  0  0  0
    6.3440   -1.4242   20.2474 H   0  0  0  0  0  0  0  0  0  0  0  0
    8.0089   -0.8691   18.3272 H   0  0  0  0  0  0  0  0  0  0  0  0
    6.4838   -1.3245   17.9619 H   0  0  0  0  0  0  0  0  0  0  0  0
    7.5137   -1.2560   22.3205 H   0  0  0  0  0  0  0  0  0  0  0  0
    8.0786    1.1955   24.1183 H   0  0  0  0  0  0  0  0  0  0  0  0
   10.6976   -1.5739   20.9139 H   0  0  0  0  0  0  0  0  0  0  0  0
   14.2103   -0.4266   22.7432 H   0  0  0  0  0  0  0  0  0  0  0  0
  1  2  1  0  0  0  0
  2  3  2  0  0  0  0
  2  4  1  0  0  0  0
  3  5  1  0  0  0  0
  3  6  1  0  0  0  0
  4  7  2  0  0  0  0
  6  8  2  0  0  0  0
  7  9  1  0  0  0  0
  8 10  1  0  0  0  0
  9 11  1  0  0  0  0
 10 12  1  0  0  0  0
 12 13  2  0  0  0  0
 12 14  1  0  0  0  0
 14 15  1  0  0  0  0
 15 16  1  0  0  0  0
 15 17  1  0  0  0  0
 16 18  2  0  0  0  0
 16 19  1  0  0  0  0
 17 20  2  0  0  0  0
 18 21  1  0  0  0  0
 19 22  2  0  0  0  0
 21 23  1  0  0  0  0
 21 24  2  0  0  0  0
 22 25  1  0  0  0  0
  7  8  1  0  0  0  0
 10 11  1  0  0  0  0
 18 20  1  0  0  0  0
 22 24  1  0  0  0  0
  4 26  1  0  0  0  0
  6 27  1  0  0  0  0
 10 28  1  0  0  0  0
 11 29  1  0  0  0  0
 11 30  1  0  0  0  0
 14 31  1  0  0  0  0
 17 32  1  0  0  0  0
 19 33  1  0  0  0  0
 24 34  1  0  0  0  0
M  END
> <BIOSOLVEIT.HYDE_ESTIMATED_AFFINITY_LOWER_BOUNDARY [nM]>
4190.596889

> <BIOSOLVEIT.HYDE_ESTIMATED_AFFINITY_UPPER_BOUNDARY [nM]>
416360.577664

> <BIOSOLVEIT.HYDE_LIGAND_EFFICIENCY range: ++, +, 0, -, -->
-

> <BIOSOLVEIT.HYDE_LIGAND_LIPOPHILIC_EFFICIENCY range: ++, +, 0, -, -->
--

> <BIOSOLVEIT.INTER_CLASH range: red, yellow, green>
green

> <BIOSOLVEIT.INTRA_CLASH range: red, yellow, green>
green

> <BIOSOLVEIT.LOGP>
3.8676

> <BIOSOLVEIT.MOLECULAR WEIGHT>
384.168

> <BIOSOLVEIT.MOLECULE_CHECKSUM>
LTI0Ljk5NjE7MC45OTk4NDQ=

> <BIOSOLVEIT.TORSION_QUALITY range: red, yellow, green, not rotatable>
green

> <BIOSOLVEIT.TPSA>
56.15

> <BIOSOLVEIT.SEESAR_FAVORITE>
favorite

> <smc_score>
0.938

> <QED_score>
0.73

> <distance>
0.653

> <SimilarityPheSA_1>
0.75

> <Smiles>
O=C(Nn1cnc2c(F)cc(F)cc21)C1COc2cc(Cl)c(Cl)cc21

> <Similarity_SkelSpheres>
0.616

> <Cluster No>
386.0

> <QueryID>
JAG-UCB-a3ef7265-20

> <SimilarityPheSA>
0.7495

> <Postera series>
3-aminopyridine-like

> <PDB_code>
Mpro-x10324

> <Approach>
DGM_focussed_RL

> <ID>
20210618_686

> <SimilarityPheSA_2>
0.87

> <OPTIBRIUM.logD>
3.24421

> <OPTIBRIUM.BBB category>
-

> <OPTIBRIUM.logP>
3.24421

> <OPTIBRIUM.P-gp category>
no

> <OPTIBRIUM.logS>
0.272547

> <OPTIBRIUM.HIA category>
+

> <OPTIBRIUM.PPB90 category>
high

> <OPTIBRIUM.2D6 affinity category>
high

> <OPTIBRIUM.hERG pIC50>
5.56757

> <OPTIBRIUM.2C9 pKi>
5.58392

> <OPTIBRIUM.BBB log([brain]:[blood])>
-0.435416

> <OPTIBRIUM.logS @ pH7.4>
0.272547

$$$$
Compound 115_1_001
haSeeSAR  07122111353D 1   1.00000     0.00000     0
SeeSAR 11.0.2 hazemaj
 54 57  0  0  0  0            999 V2000
    8.6316   -0.4110   26.8528 Cl  0  0  0  0  0  0  0  0  0  0  0  0
    7.9725    1.1541   26.3196 C   0  0  0  0  0  0  0  0  0  0  0  0
    7.7731    2.1818   27.2355 C   0  0  0  0  0  0  0  0  0  0  0  0
    7.6534    1.3546   24.9800 C   0  0  0  0  0  0  0  0  0  0  0  0
    8.1832    1.9167   28.9472 Cl  0  0  0  0  0  0  0  0  0  0  0  0
    7.2584    3.4081   26.8272 C   0  0  0  0  0  0  0  0  0  0  0  0
    7.1389    2.5785   24.5637 C   0  0  0  0  0  0  0  0  0  0  0  0
    7.8676    0.2376   23.9717 C   0  0  0  0  0  0  0  0  0  0  0  0
    6.9433    3.6007   25.4862 C   0  0  0  0  0  0  0  0  0  0  0  0
    8.7982    0.6913   22.9280 N   0  0  0  0  0  0  0  0  0  0  0  0
    8.4543    0.6076   21.6533 C   0  0  0  0  0  0  0  0  0  0  0  0
   10.1108    1.2382   23.3008 C   0  0  0  0  0  0  0  0  0  0  0  0
    9.0380    1.2910   20.8121 O   0  0  0  0  0  0  0  0  0  0  0  0
    7.3384   -0.3325   21.2273 C   0  0  0  0  0  0  0  0  0  0  0  0
   11.0287    0.1049   23.7291 C   0  0  1  0  0  0  0  0  0  0  0  0
    6.6380    0.2344   20.0014 C   0  0  0  0  0  0  0  0  0  0  0  0
   10.3091   -1.1825   23.3577 C   0  0  0  0  0  0  0  0  0  0  0  0
   12.3661    0.3741   23.0359 C   0  0  0  0  0  0  0  0  0  0  0  0
    5.4712    0.9940   20.0788 C   0  0  0  0  0  0  0  0  0  0  0  0
    7.1950   -0.0224   18.7524 C   0  0  0  0  0  0  0  0  0  0  0  0
   10.6382   -1.6489   21.9475 C   0  0  0  0  0  0  0  0  0  0  0  0
   12.9453   -0.8221   22.2908 C   0  0  0  0  0  0  0  0  0  0  0  0
    4.8897    1.4772   18.9108 C   0  0  0  0  0  0  0  0  0  0  0  0
    4.8569    1.2910   21.2937 C   0  0  0  0  0  0  0  0  0  0  0  0
    6.6174    0.4538   17.6394 N   0  0  0  0  0  0  0  0  0  0  0  0
    9.7596   -2.1626   21.2719 O   0  0  0  0  0  0  0  0  0  0  0  0
   11.9340   -1.4708   21.4446 N   0  0  0  0  0  0  0  0  0  0  0  0
    5.4950    1.1862   17.6922 C   0  0  0  0  0  0  0  0  0  0  0  0
    3.7264    2.2377   18.9592 C   0  0  0  0  0  0  0  0  0  0  0  0
    3.6932    2.0492   21.3655 C   0  0  0  0  0  0  0  0  0  0  0  0
    3.1313    2.5217   20.1838 C   0  0  0  0  0  0  0  0  0  0  0  0
    7.1167    4.1430   27.4903 H   0  0  0  0  0  0  0  0  0  0  0  0
    6.9097    2.7230   23.6011 H   0  0  0  0  0  0  0  0  0  0  0  0
    6.9924   -0.0073   23.5544 H   0  0  0  0  0  0  0  0  0  0  0  0
    8.2508   -0.5613   24.4355 H   0  0  0  0  0  0  0  0  0  0  0  0
    6.5739    4.4793   25.1836 H   0  0  0  0  0  0  0  0  0  0  0  0
   10.0007    1.8822   24.0579 H   0  0  0  0  0  0  0  0  0  0  0  0
   10.5097    1.7118   22.5157 H   0  0  0  0  0  0  0  0  0  0  0  0
    6.6795   -0.4275   21.9735 H   0  0  0  0  0  0  0  0  0  0  0  0
    7.7235   -1.2286   21.0065 H   0  0  0  0  0  0  0  0  0  0  0  0
   11.1566    0.1387   24.7203 H   0  0  0  0  0  0  0  0  0  0  0  0
    9.3231   -1.0288   23.4225 H   0  0  0  0  0  0  0  0  0  0  0  0
   10.5781   -1.8976   24.0028 H   0  0  0  0  0  0  0  0  0  0  0  0
   13.0264    0.6583   23.7311 H   0  0  0  0  0  0  0  0  0  0  0  0
   12.2334    1.1165   22.3791 H   0  0  0  0  0  0  0  0  0  0  0  0
    8.0317   -0.5659   18.6841 H   0  0  0  0  0  0  0  0  0  0  0  0
   13.2860   -1.4858   22.9567 H   0  0  0  0  0  0  0  0  0  0  0  0
   13.7006   -0.5110   21.7140 H   0  0  0  0  0  0  0  0  0  0  0  0
    5.2651    0.9483   22.1398 H   0  0  0  0  0  0  0  0  0  0  0  0
   12.1673   -1.7809   20.5229 H   0  0  0  0  0  0  0  0  0  0  0  0
    5.0879    1.5274   16.8450 H   0  0  0  0  0  0  0  0  0  0  0  0
    3.3175    2.5804   18.1133 H   0  0  0  0  0  0  0  0  0  0  0  0
    3.2691    2.2506   22.2484 H   0  0  0  0  0  0  0  0  0  0  0  0
    2.2947    3.0686   20.2151 H   0  0  0  0  0  0  0  0  0  0  0  0
  1  2  1  0  0  0  0
  2  3  2  0  0  0  0
  2  4  1  0  0  0  0
  3  5  1  0  0  0  0
  3  6  1  0  0  0  0
  4  7  2  0  0  0  0
  4  8  1  0  0  0  0
  6  9  2  0  0  0  0
  8 10  1  0  0  0  0
 10 11  1  0  0  0  0
 10 12  1  0  0  0  0
 11 13  2  0  0  0  0
 11 14  1  0  0  0  0
 12 15  1  0  0  0  0
 14 16  1  0  0  0  0
 15 17  1  0  0  0  0
 15 18  1  0  0  0  0
 16 19  1  0  0  0  0
 16 20  2  0  0  0  0
 17 21  1  0  0  0  0
 18 22  1  0  0  0  0
 19 23  1  0  0  0  0
 19 24  2  0  0  0  0
 20 25  1  0  0  0  0
 21 26  2  0  0  0  0
 21 27  1  0  0  0  0
 23 28  1  0  0  0  0
 23 29  2  0  0  0  0
 24 30  1  0  0  0  0
 29 31  1  0  0  0  0
  7  9  1  0  0  0  0
 22 27  1  0  0  0  0
 25 28  2  0  0  0  0
 30 31  2  0  0  0  0
  6 32  1  0  0  0  0
  7 33  1  0  0  0  0
  8 34  1  0  0  0  0
  8 35  1  0  0  0  0
  9 36  1  0  0  0  0
 12 37  1  0  0  0  0
 12 38  1  0  0  0  0
 14 39  1  0  0  0  0
 14 40  1  0  0  0  0
 15 41  1  0  0  0  0
 17 42  1  0  0  0  0
 17 43  1  0  0  0  0
 18 44  1  0  0  0  0
 18 45  1  0  0  0  0
 20 46  1  0  0  0  0
 22 47  1  0  0  0  0
 22 48  1  0  0  0  0
 24 49  1  0  0  0  0
 27 50  1  0  0  0  0
 28 51  1  0  0  0  0
 29 52  1  0  0  0  0
 30 53  1  0  0  0  0
 31 54  1  0  0  0  0
M  END
> <BIOSOLVEIT.HYDE_ESTIMATED_AFFINITY_LOWER_BOUNDARY [nM]>
4429.559284

> <BIOSOLVEIT.HYDE_ESTIMATED_AFFINITY_UPPER_BOUNDARY [nM]>
440102.904504

> <BIOSOLVEIT.HYDE_LIGAND_EFFICIENCY range: ++, +, 0, -, -->
--

> <BIOSOLVEIT.HYDE_LIGAND_LIPOPHILIC_EFFICIENCY range: ++, +, 0, -, -->
--

> <BIOSOLVEIT.INTER_CLASH range: red, yellow, green>
green

> <BIOSOLVEIT.INTRA_CLASH range: red, yellow, green>
yellow

> <BIOSOLVEIT.LOGP>
4.6391

> <BIOSOLVEIT.MOLECULAR WEIGHT>
456.371

> <BIOSOLVEIT.MOLECULE_CHECKSUM>
LTI0Ljg1ODY7MC44MDE4OTE=

> <BIOSOLVEIT.TORSION_QUALITY range: red, yellow, green, not rotatable>
yellow

> <BIOSOLVEIT.TPSA>
62.3

> <BIOSOLVEIT.SEESAR_FAVORITE>
favorite

> <smc_score>
0.563

> <QED_score>
0.588

> <distance>
0.577

> <SimilarityPheSA_1>
0.637

> <Smiles>
O=C1CC(CN(Cc2cccc(Cl)c2Cl)C(=O)Cc2cncc3ccccc23)CCN1

> <Similarity_SkelSpheres>
0.752

> <Cluster No>
53.0

> <QueryID>
ALP-POS-c59291d4-4

> <SimilarityPheSA>
0.6367

> <Postera series>
3-aminopyridine-like

> <PDB_code>
Mpro-x10820

> <Approach>
DGM_focussed_RL

> <ID>
20210618_114

> <SimilarityPheSA_2>
0.708

> <OPTIBRIUM.logD>
3.63568

> <OPTIBRIUM.BBB category>
-

> <OPTIBRIUM.logP>
3.63568

> <OPTIBRIUM.P-gp category>
yes

> <OPTIBRIUM.logS>
0.933199

> <OPTIBRIUM.HIA category>
+

> <OPTIBRIUM.PPB90 category>
high

> <OPTIBRIUM.2D6 affinity category>
high

> <OPTIBRIUM.hERG pIC50>
5.21475

> <OPTIBRIUM.2C9 pKi>
5.6623

> <OPTIBRIUM.BBB log([brain]:[blood])>
-0.305748

> <OPTIBRIUM.logS @ pH7.4>
0.933199

$$$$
Compound 330_1_01
haSeeSAR  07122111353D 1   1.00000     0.00000     0
SeeSAR 11.0.2 hazemaj
 47 50  0  0  0  0            999 V2000
    9.1626    2.5533   31.4865 Cl  0  0  0  0  0  0  0  0  0  0  0  0
    9.0101    1.5174   30.0466 C   0  0  0  0  0  0  0  0  0  0  0  0
    9.6341    0.2749   30.0143 C   0  0  0  0  0  0  0  0  0  0  0  0
    8.2628    1.9614   28.9618 C   0  0  0  0  0  0  0  0  0  0  0  0
   10.5860   -0.2698   31.4161 Cl  0  0  0  0  0  0  0  0  0  0  0  0
    9.5201   -0.5433   28.8948 C   0  0  0  0  0  0  0  0  0  0  0  0
    8.1526    1.1400   27.8456 C   0  0  0  0  0  0  0  0  0  0  0  0
    8.7745   -0.1034   27.8061 C   0  0  0  0  0  0  0  0  0  0  0  0
    7.3389    1.6092   26.6501 C   0  0  0  0  0  0  0  0  0  0  0  0
    7.4651    0.6352   25.5596 N   0  0  0  0  0  0  0  0  0  0  0  0
    8.3972    0.7181   24.5303 C   0  0  0  0  0  0  0  0  0  0  0  0
    6.6263   -0.5572   25.3536 C   0  0  0  0  0  0  0  0  0  0  0  0
    9.1850    1.6452   24.4098 O   0  0  0  0  0  0  0  0  0  0  0  0
    8.3015   -0.3924   23.6808 N   0  0  0  0  0  0  0  0  0  0  0  0
    7.2942   -1.3124   24.2224 C   0  0  0  0  0  0  0  0  0  0  0  0
    9.1059   -0.6056   22.4650 C   0  0  0  0  0  0  0  0  0  0  0  0
    8.4183    0.0536   21.2806 C   0  0  0  0  0  0  0  0  0  0  0  0
    8.9281    1.0359   20.7414 O   0  0  0  0  0  0  0  0  0  0  0  0
    7.2719   -0.4282   20.8289 N   0  0  0  0  0  0  0  0  0  0  0  0
    6.6375    0.1801   19.7361 C   0  0  0  0  0  0  0  0  0  0  0  0
    5.4630    0.9049   19.9378 C   0  0  0  0  0  0  0  0  0  0  0  0
    7.1542    0.0710   18.4483 C   0  0  0  0  0  0  0  0  0  0  0  0
    4.8145    1.5287   18.8882 C   0  0  0  0  0  0  0  0  0  0  0  0
    4.6676    1.1661   21.1977 C   0  0  0  0  0  0  0  0  0  0  0  0
    6.5127    0.6658   17.4298 N   0  0  0  0  0  0  0  0  0  0  0  0
    3.6825    2.1815   19.3844 N   0  0  0  0  0  0  0  0  0  0  0  0
    5.3871    1.3738   17.6267 C   0  0  0  0  0  0  0  0  0  0  0  0
    3.8390    2.3701   20.8309 C   0  0  0  0  0  0  0  0  0  0  0  0
    7.8132    2.8544   28.9838 H   0  0  0  0  0  0  0  0  0  0  0  0
    9.9687   -1.4367   28.8730 H   0  0  0  0  0  0  0  0  0  0  0  0
    8.6855   -0.6812   26.9948 H   0  0  0  0  0  0  0  0  0  0  0  0
    7.6788    2.4985   26.3439 H   0  0  0  0  0  0  0  0  0  0  0  0
    6.3776    1.6924   26.9132 H   0  0  0  0  0  0  0  0  0  0  0  0
    5.6958   -0.2934   25.0995 H   0  0  0  0  0  0  0  0  0  0  0  0
    6.5996   -1.1162   26.1824 H   0  0  0  0  0  0  0  0  0  0  0  0
    6.6252   -1.5522   23.5189 H   0  0  0  0  0  0  0  0  0  0  0  0
    7.7293   -2.1446   24.5661 H   0  0  0  0  0  0  0  0  0  0  0  0
    9.1974   -1.5866   22.2936 H   0  0  0  0  0  0  0  0  0  0  0  0
   10.0127   -0.2032   22.5904 H   0  0  0  0  0  0  0  0  0  0  0  0
    6.8577   -1.2261   21.2669 H   0  0  0  0  0  0  0  0  0  0  0  0
    7.9946   -0.4451   18.2834 H   0  0  0  0  0  0  0  0  0  0  0  0
    5.2715    1.3667   21.9691 H   0  0  0  0  0  0  0  0  0  0  0  0
    4.0860    0.3848   21.4241 H   0  0  0  0  0  0  0  0  0  0  0  0
    2.8945    2.4726   18.8419 H   0  0  0  0  0  0  0  0  0  0  0  0
    4.9448    1.8048   16.8402 H   0  0  0  0  0  0  0  0  0  0  0  0
    4.3192    3.2222   21.0393 H   0  0  0  0  0  0  0  0  0  0  0  0
    2.9552    2.3626   21.2988 H   0  0  0  0  0  0  0  0  0  0  0  0
  1  2  1  0  0  0  0
  2  3  2  0  0  0  0
  2  4  1  0  0  0  0
  3  5  1  0  0  0  0
  3  6  1  0  0  0  0
  4  7  2  0  0  0  0
  6  8  2  0  0  0  0
  7  9  1  0  0  0  0
  9 10  1  0  0  0  0
 10 11  1  0  0  0  0
 10 12  1  0  0  0  0
 11 13  2  0  0  0  0
 11 14  1  0  0  0  0
 12 15  1  0  0  0  0
 14 16  1  0  0  0  0
 16 17  1  0  0  0  0
 17 18  2  0  0  0  0
 17 19  1  0  0  0  0
 19 20  1  0  0  0  0
 20 21  2  0  0  0  0
 20 22  1  0  0  0  0
 21 23  1  0  0  0  0
 21 24  1  0  0  0  0
 22 25  2  0  0  0  0
 23 26  1  0  0  0  0
 23 27  2  0  0  0  0
 24 28  1  0  0  0  0
  7  8  1  0  0  0  0
 14 15  1  0  0  0  0
 25 27  1  0  0  0  0
 26 28  1  0  0  0  0
  4 29  1  0  0  0  0
  6 30  1  0  0  0  0
  8 31  1  0  0  0  0
  9 32  1  0  0  0  0
  9 33  1  0  0  0  0
 12 34  1  0  0  0  0
 12 35  1  0  0  0  0
 15 36  1  0  0  0  0
 15 37  1  0  0  0  0
 16 38  1  0  0  0  0
 16 39  1  0  0  0  0
 19 40  1  0  0  0  0
 22 41  1  0  0  0  0
 24 42  1  0  0  0  0
 24 43  1  0  0  0  0
 26 44  1  0  0  0  0
 27 45  1  0  0  0  0
 28 46  1  0  0  0  0
 28 47  1  0  0  0  0
M  END
> <BIOSOLVEIT.HYDE_ESTIMATED_AFFINITY_LOWER_BOUNDARY [nM]>
5066.332898

> <BIOSOLVEIT.HYDE_ESTIMATED_AFFINITY_UPPER_BOUNDARY [nM]>
503370.127912

> <BIOSOLVEIT.HYDE_LIGAND_EFFICIENCY range: ++, +, 0, -, -->
-

> <BIOSOLVEIT.HYDE_LIGAND_LIPOPHILIC_EFFICIENCY range: ++, +, 0, -, -->
--

> <BIOSOLVEIT.INTER_CLASH range: red, yellow, green>
green

> <BIOSOLVEIT.INTRA_CLASH range: red, yellow, green>
green

> <BIOSOLVEIT.LOGP>
3.2327

> <BIOSOLVEIT.MOLECULAR WEIGHT>
420.298

> <BIOSOLVEIT.MOLECULE_CHECKSUM>
LTI0LjUyNTc7MC44NzU5MTY=

> <BIOSOLVEIT.TORSION_QUALITY range: red, yellow, green, not rotatable>
green

> <BIOSOLVEIT.TPSA>
77.57

> <BIOSOLVEIT.SEESAR_FAVORITE>
favorite

> <smc_score>
0.875

> <QED_score>
0.779

> <distance>
0.522

> <SimilarityPheSA_1>
0.664

> <Smiles>
O=C(CN1CCN(Cc2ccc(Cl)c(Cl)c2)C1=O)Nc1cncc2c1CCN2

> <Similarity_SkelSpheres>
0.672

> <Cluster No>
165.0

> <QueryID>
PET-UNK-c9c1e0d8-3

> <SimilarityPheSA>
0.6641

> <Postera series>
3-aminopyridine-like

> <PDB_code>
Mpro-x12587

> <Approach>
DGM_focussed_RL

> <ID>
20210618_329

> <SimilarityPheSA_2>
0.672

> <OPTIBRIUM.logD>
2.24858

> <OPTIBRIUM.BBB category>
-

> <OPTIBRIUM.logP>
2.16387

> <OPTIBRIUM.P-gp category>
yes

> <OPTIBRIUM.logS>
2.07129

> <OPTIBRIUM.HIA category>
+

> <OPTIBRIUM.PPB90 category>
high

> <OPTIBRIUM.2D6 affinity category>
medium

> <OPTIBRIUM.hERG pIC50>
4.78816

> <OPTIBRIUM.2C9 pKi>
5.63938

> <OPTIBRIUM.BBB log([brain]:[blood])>
-0.305901

> <OPTIBRIUM.logS @ pH7.4>
1.5639

$$$$
Compound 706_1_003
haSeeSAR  07122111353D 1   1.00000     0.00000     0
SeeSAR 11.0.2 hazemaj
 43 46  0  0  0  0            999 V2000
    8.0950    3.1755   29.4304 Cl  0  0  0  0  0  0  0  0  0  0  0  0
    7.7901    2.8226   27.7121 C   0  0  0  0  0  0  0  0  0  0  0  0
    7.3707    3.8366   26.8576 C   0  0  0  0  0  0  0  0  0  0  0  0
    7.9767    1.5297   27.2368 C   0  0  0  0  0  0  0  0  0  0  0  0
    7.1383    5.4834   27.4917 Cl  0  0  0  0  0  0  0  0  0  0  0  0
    7.1312    3.5723   25.5129 C   0  0  0  0  0  0  0  0  0  0  0  0
    7.7355    1.2711   25.8922 C   0  0  0  0  0  0  0  0  0  0  0  0
    7.3153    2.2801   25.0322 C   0  0  0  0  0  0  0  0  0  0  0  0
    7.9349   -0.1369   25.3549 C   0  0  0  0  0  0  0  0  0  0  0  0
    7.2352   -0.2706   24.0121 C   0  0  0  0  0  0  0  0  0  0  0  0
    8.0668   -1.1476   23.0932 C   0  0  1  0  0  0  0  0  0  0  0  0
    7.3989   -1.4153   21.7607 C   0  0  0  0  0  0  0  0  0  0  0  0
    9.3249   -0.4639   22.6090 C   0  0  0  0  0  0  0  0  0  0  0  0
    7.6651   -0.2053   20.9766 N   0  0  0  0  0  0  0  0  0  0  0  0
    8.8212    0.3949   21.4655 C   0  0  0  0  0  0  0  0  0  0  0  0
    6.8810    0.2686   19.9170 C   0  0  0  0  0  0  0  0  0  0  0  0
    9.3326    1.4225   21.0571 O   0  0  0  0  0  0  0  0  0  0  0  0
    5.6706    0.9296   20.1147 C   0  0  0  0  0  0  0  0  0  0  0  0
    7.3360    0.0669   18.6179 C   0  0  0  0  0  0  0  0  0  0  0  0
    4.9409    1.3750   19.0187 C   0  0  0  0  0  0  0  0  0  0  0  0
    5.1482    1.1691   21.3824 C   0  0  0  0  0  0  0  0  0  0  0  0
    6.6168    0.5044   17.5736 N   0  0  0  0  0  0  0  0  0  0  0  0
    5.4496    1.1423   17.7449 C   0  0  0  0  0  0  0  0  0  0  0  0
    3.7337    2.0345   19.2273 C   0  0  0  0  0  0  0  0  0  0  0  0
    3.9368    1.8319   21.5522 C   0  0  0  0  0  0  0  0  0  0  0  0
    3.2654    2.2454   20.4665 N   0  0  0  0  0  0  0  0  0  0  0  0
    8.2788    0.7998   27.8500 H   0  0  0  0  0  0  0  0  0  0  0  0
    6.8304    4.3024   24.8993 H   0  0  0  0  0  0  0  0  0  0  0  0
    7.1456    2.0766   24.0679 H   0  0  0  0  0  0  0  0  0  0  0  0
    7.5490   -0.7973   25.9990 H   0  0  0  0  0  0  0  0  0  0  0  0
    8.9124   -0.3148   25.2405 H   0  0  0  0  0  0  0  0  0  0  0  0
    7.1269    0.6344   23.6010 H   0  0  0  0  0  0  0  0  0  0  0  0
    6.3354   -0.6862   24.1450 H   0  0  0  0  0  0  0  0  0  0  0  0
    8.2931   -2.0094   23.5472 H   0  0  0  0  0  0  0  0  0  0  0  0
    6.4154   -1.5529   21.8780 H   0  0  0  0  0  0  0  0  0  0  0  0
    7.7976   -2.2191   21.3191 H   0  0  0  0  0  0  0  0  0  0  0  0
    9.9974   -1.1313   22.2892 H   0  0  0  0  0  0  0  0  0  0  0  0
    9.7300    0.0980   23.3303 H   0  0  0  0  0  0  0  0  0  0  0  0
    8.2030   -0.4064   18.4620 H   0  0  0  0  0  0  0  0  0  0  0  0
    5.6537    0.8586   22.1873 H   0  0  0  0  0  0  0  0  0  0  0  0
    4.9374    1.4554   16.9452 H   0  0  0  0  0  0  0  0  0  0  0  0
    3.2066    2.3562   18.4407 H   0  0  0  0  0  0  0  0  0  0  0  0
    3.5724    1.9974   22.4685 H   0  0  0  0  0  0  0  0  0  0  0  0
  1  2  1  0  0  0  0
  2  3  2  0  0  0  0
  2  4  1  0  0  0  0
  3  5  1  0  0  0  0
  3  6  1  0  0  0  0
  4  7  2  0  0  0  0
  6  8  2  0  0  0  0
  7  9  1  0  0  0  0
  9 10  1  0  0  0  0
 10 11  1  0  0  0  0
 11 12  1  0  0  0  0
 11 13  1  0  0  0  0
 12 14  1  0  0  0  0
 13 15  1  0  0  0  0
 14 16  1  0  0  0  0
 15 17  2  0  0  0  0
 16 18  1  0  0  0  0
 16 19  2  0  0  0  0
 18 20  1  0  0  0  0
 18 21  2  0  0  0  0
 19 22  1  0  0  0  0
 20 23  1  0  0  0  0
 20 24  2  0  0  0  0
 21 25  1  0  0  0  0
 24 26  1  0  0  0  0
  7  8  1  0  0  0  0
 14 15  1  0  0  0  0
 22 23  2  0  0  0  0
 25 26  2  0  0  0  0
  4 27  1  0  0  0  0
  6 28  1  0  0  0  0
  8 29  1  0  0  0  0
  9 30  1  0  0  0  0
  9 31  1  0  0  0  0
 10 32  1  0  0  0  0
 10 33  1  0  0  0  0
 11 34  1  0  0  0  0
 12 35  1  0  0  0  0
 12 36  1  0  0  0  0
 13 37  1  0  0  0  0
 13 38  1  0  0  0  0
 19 39  1  0  0  0  0
 21 40  1  0  0  0  0
 23 41  1  0  0  0  0
 24 42  1  0  0  0  0
 25 43  1  0  0  0  0
M  END
> <BIOSOLVEIT.HYDE_ESTIMATED_AFFINITY_LOWER_BOUNDARY [nM]>
5295.455726

> <BIOSOLVEIT.HYDE_ESTIMATED_AFFINITY_UPPER_BOUNDARY [nM]>
526134.835591

> <BIOSOLVEIT.HYDE_LIGAND_EFFICIENCY range: ++, +, 0, -, -->
-

> <BIOSOLVEIT.HYDE_LIGAND_LIPOPHILIC_EFFICIENCY range: ++, +, 0, -, -->
--

> <BIOSOLVEIT.INTER_CLASH range: red, yellow, green>
green

> <BIOSOLVEIT.INTRA_CLASH range: red, yellow, green>
green

> <BIOSOLVEIT.LOGP>
4.9223

> <BIOSOLVEIT.MOLECULAR WEIGHT>
386.28

> <BIOSOLVEIT.MOLECULE_CHECKSUM>
LTI0LjQxNjswLjkzOTA3Nw==

> <BIOSOLVEIT.TORSION_QUALITY range: red, yellow, green, not rotatable>
red

> <BIOSOLVEIT.TPSA>
46.09

> <BIOSOLVEIT.SEESAR_FAVORITE>
favorite

> <smc_score>
0.688

> <QED_score>
0.639

> <distance>
0.55

> <SimilarityPheSA_1>
0.685

> <Smiles>
O=C1CC(CCc2ccc(Cl)c(Cl)c2)CN1c1cncc2cnccc12

> <Similarity_SkelSpheres>
0.816

> <Cluster No>
398.0

> <QueryID>
MAT-POS-f7918075-5

> <SimilarityPheSA>
0.6847

> <Postera series>
3-aminopyridine-like

> <PDB_code>
Mpro-x11499

> <Approach>
DGM_focussed_RL

> <ID>
20210618_705

> <SimilarityPheSA_2>
0.865

> <OPTIBRIUM.logD>
3.79392

> <OPTIBRIUM.BBB category>
+

> <OPTIBRIUM.logP>
3.79392

> <OPTIBRIUM.P-gp category>
no

> <OPTIBRIUM.logS>
0.168857

> <OPTIBRIUM.HIA category>
+

> <OPTIBRIUM.PPB90 category>
high

> <OPTIBRIUM.2D6 affinity category>
medium

> <OPTIBRIUM.hERG pIC50>
5.20949

> <OPTIBRIUM.2C9 pKi>
5.53082

> <OPTIBRIUM.BBB log([brain]:[blood])>
-0.336391

> <OPTIBRIUM.logS @ pH7.4>
0.168857

$$$$
Compound 723_1_05
haSeeSAR  07122111353D 1   1.00000     0.00000     0
SeeSAR 11.0.2 hazemaj
 36 39  0  0  0  0            999 V2000
    6.5538    1.2557   23.7786 Cl  0  0  0  0  0  0  0  0  0  0  0  0
    7.4210   -0.1726   24.3899 C   0  0  0  0  0  0  0  0  0  0  0  0
    8.3775   -0.8420   23.6309 C   0  0  0  0  0  0  0  0  0  0  0  0
    7.1033   -0.5844   25.6784 C   0  0  0  0  0  0  0  0  0  0  0  0
    8.8802   -0.6581   22.3427 N   0  0  0  0  0  0  0  0  0  0  0  0
    8.9838   -1.9450   24.2007 C   0  0  0  0  0  0  0  0  0  0  0  0
    7.7440   -1.6869   26.2330 C   0  0  0  0  0  0  0  0  0  0  0  0
    8.2868    0.0328   21.2715 C   0  0  0  0  0  0  0  0  0  0  0  0
   10.1654   -1.3493   22.2479 C   0  0  0  0  0  0  0  0  0  0  0  0
    8.6988   -2.3773   25.4931 C   0  0  0  0  0  0  0  0  0  0  0  0
    9.9275   -2.5210   23.1767 C   0  0  0  0  0  0  0  0  0  0  0  0
    8.8352    0.9886   20.7967 O   0  0  0  0  0  0  0  0  0  0  0  0
    7.0826   -0.3854   20.7697 N   0  0  0  0  0  0  0  0  0  0  0  0
    9.5314   -3.7897   26.1846 Cl  0  0  0  0  0  0  0  0  0  0  0  0
    6.4911    0.3032   19.7021 C   0  0  0  0  0  0  0  0  0  0  0  0
    5.3384    1.0577   19.9328 C   0  0  0  0  0  0  0  0  0  0  0  0
    7.0196    0.2298   18.4171 C   0  0  0  0  0  0  0  0  0  0  0  0
    4.7797    1.7423   18.8851 C   0  0  0  0  0  0  0  0  0  0  0  0
    4.4956    1.3513   21.1645 C   0  0  0  0  0  0  0  0  0  0  0  0
    6.4261    0.8946   17.4128 N   0  0  0  0  0  0  0  0  0  0  0  0
    3.6335    2.4931   19.3483 C   0  0  0  0  0  0  0  0  0  0  0  0
    5.3328    1.6448   17.6120 C   0  0  0  0  0  0  0  0  0  0  0  0
    3.4562    2.2798   20.7130 N   0  0  0  0  0  0  0  0  0  0  0  0
    2.9082    3.2019   18.6669 O   0  0  0  0  0  0  0  0  0  0  0  0
    6.4142   -0.0881   26.2067 H   0  0  0  0  0  0  0  0  0  0  0  0
    7.5189   -1.9830   27.1613 H   0  0  0  0  0  0  0  0  0  0  0  0
   10.9176   -0.7731   22.5678 H   0  0  0  0  0  0  0  0  0  0  0  0
   10.3520   -1.6527   21.3135 H   0  0  0  0  0  0  0  0  0  0  0  0
    9.5079   -3.2874   22.6903 H   0  0  0  0  0  0  0  0  0  0  0  0
   10.7806   -2.8231   23.6021 H   0  0  0  0  0  0  0  0  0  0  0  0
    6.6255   -1.1821   21.1654 H   0  0  0  0  0  0  0  0  0  0  0  0
    7.8389   -0.3162   18.2420 H   0  0  0  0  0  0  0  0  0  0  0  0
    5.0547    1.7727   21.8787 H   0  0  0  0  0  0  0  0  0  0  0  0
    4.0847    0.5101   21.5159 H   0  0  0  0  0  0  0  0  0  0  0  0
    4.9152    2.1340   16.8462 H   0  0  0  0  0  0  0  0  0  0  0  0
    2.7444    2.6884   21.2843 H   0  0  0  0  0  0  0  0  0  0  0  0
  1  2  1  0  0  0  0
  2  3  2  0  0  0  0
  2  4  1  0  0  0  0
  3  5  1  0  0  0  0
  3  6  1  0  0  0  0
  4  7  2  0  0  0  0
  5  8  1  0  0  0  0
  5  9  1  0  0  0  0
  6 10  2  0  0  0  0
  6 11  1  0  0  0  0
  8 12  2  0  0  0  0
  8 13  1  0  0  0  0
 10 14  1  0  0  0  0
 13 15  1  0  0  0  0
 15 16  2  0  0  0  0
 15 17  1  0  0  0  0
 16 18  1  0  0  0  0
 16 19  1  0  0  0  0
 17 20  2  0  0  0  0
 18 21  1  0  0  0  0
 18 22  2  0  0  0  0
 19 23  1  0  0  0  0
 21 24  2  0  0  0  0
  7 10  1  0  0  0  0
  9 11  1  0  0  0  0
 20 22  1  0  0  0  0
 21 23  1  0  0  0  0
  4 25  1  0  0  0  0
  7 26  1  0  0  0  0
  9 27  1  0  0  0  0
  9 28  1  0  0  0  0
 11 29  1  0  0  0  0
 11 30  1  0  0  0  0
 13 31  1  0  0  0  0
 17 32  1  0  0  0  0
 19 33  1  0  0  0  0
 19 34  1  0  0  0  0
 22 35  1  0  0  0  0
 23 36  1  0  0  0  0
M  END
> <BIOSOLVEIT.HYDE_ESTIMATED_AFFINITY_LOWER_BOUNDARY [nM]>
5373.857064

> <BIOSOLVEIT.HYDE_ESTIMATED_AFFINITY_UPPER_BOUNDARY [nM]>
533924.472026

> <BIOSOLVEIT.HYDE_LIGAND_EFFICIENCY range: ++, +, 0, -, -->
-

> <BIOSOLVEIT.HYDE_LIGAND_LIPOPHILIC_EFFICIENCY range: ++, +, 0, -, -->
--

> <BIOSOLVEIT.INTER_CLASH range: red, yellow, green>
green

> <BIOSOLVEIT.INTRA_CLASH range: red, yellow, green>
green

> <BIOSOLVEIT.LOGP>
3.2264

> <BIOSOLVEIT.MOLECULAR WEIGHT>
363.203

> <BIOSOLVEIT.MOLECULE_CHECKSUM>
LTI0LjM3OTY7MS4wMTU4Mg==

> <BIOSOLVEIT.TORSION_QUALITY range: red, yellow, green, not rotatable>
yellow

> <BIOSOLVEIT.TPSA>
74.33

> <BIOSOLVEIT.SEESAR_FAVORITE>
favorite

> <smc_score>
0.75

> <QED_score>
0.817

> <distance>
0.685

> <SimilarityPheSA_1>
0.671

> <Smiles>
O=C1NCc2c(NC(=O)N3CCc4c(Cl)ccc(Cl)c43)cncc21

> <Similarity_SkelSpheres>
0.633

> <Cluster No>
412.0

> <QueryID>
ALP-POS-ce760d3f-2

> <SimilarityPheSA>
0.6708

> <Postera series>
3-aminopyridine-like

> <PDB_code>
Mpro-x12659

> <Approach>
DGM_focussed_RL

> <ID>
20210618_722

> <SimilarityPheSA_2>
0.761

> <OPTIBRIUM.logD>
2.25628

> <OPTIBRIUM.BBB category>
-

> <OPTIBRIUM.logP>
2.25628

> <OPTIBRIUM.P-gp category>
no

> <OPTIBRIUM.logS>
1.27111

> <OPTIBRIUM.HIA category>
+

> <OPTIBRIUM.PPB90 category>
high

> <OPTIBRIUM.2D6 affinity category>
medium

> <OPTIBRIUM.hERG pIC50>
4.67445

> <OPTIBRIUM.2C9 pKi>
5.60181

> <OPTIBRIUM.BBB log([brain]:[blood])>
0.329193

> <OPTIBRIUM.logS @ pH7.4>
1.27111

$$$$
Compound 723_1_02
haSeeSAR  07122111353D 1   1.00000     0.00000     0
SeeSAR 11.0.2 hazemaj
 36 39  0  0  0  0            999 V2000
    6.5591    1.3979   23.7583 Cl  0  0  0  0  0  0  0  0  0  0  0  0
    7.3924   -0.0324   24.4108 C   0  0  0  0  0  0  0  0  0  0  0  0
    8.3348   -0.7439   23.6730 C   0  0  0  0  0  0  0  0  0  0  0  0
    7.0627   -0.4013   25.7094 C   0  0  0  0  0  0  0  0  0  0  0  0
    8.8442   -0.6069   22.3816 N   0  0  0  0  0  0  0  0  0  0  0  0
    8.9148   -1.8443   24.2744 C   0  0  0  0  0  0  0  0  0  0  0  0
    7.6771   -1.5025   26.2957 C   0  0  0  0  0  0  0  0  0  0  0  0
    8.2688    0.0676   21.2903 C   0  0  0  0  0  0  0  0  0  0  0  0
   10.1136   -1.3296   22.3092 C   0  0  0  0  0  0  0  0  0  0  0  0
    8.6174   -2.2343   25.5775 C   0  0  0  0  0  0  0  0  0  0  0  0
    9.8471   -2.4695   23.2691 C   0  0  0  0  0  0  0  0  0  0  0  0
    8.8315    1.0083   20.8021 O   0  0  0  0  0  0  0  0  0  0  0  0
    7.0659   -0.3493   20.7843 N   0  0  0  0  0  0  0  0  0  0  0  0
    9.4163   -3.6457   26.3096 Cl  0  0  0  0  0  0  0  0  0  0  0  0
    6.4925    0.3229   19.6965 C   0  0  0  0  0  0  0  0  0  0  0  0
    5.2992    1.0251   19.8816 C   0  0  0  0  0  0  0  0  0  0  0  0
    7.0795    0.2841   18.4356 C   0  0  0  0  0  0  0  0  0  0  0  0
    4.7577    1.6946   18.8153 C   0  0  0  0  0  0  0  0  0  0  0  0
    4.3913    1.2708   21.0771 C   0  0  0  0  0  0  0  0  0  0  0  0
    6.5021    0.9319   17.4109 N   0  0  0  0  0  0  0  0  0  0  0  0
    3.5607    2.3910   19.2329 C   0  0  0  0  0  0  0  0  0  0  0  0
    5.3697    1.6326   17.5672 C   0  0  0  0  0  0  0  0  0  0  0  0
    3.3333    2.1578   20.5868 N   0  0  0  0  0  0  0  0  0  0  0  0
    2.8359    3.0740   18.5253 O   0  0  0  0  0  0  0  0  0  0  0  0
    6.3841    0.1248   26.2219 H   0  0  0  0  0  0  0  0  0  0  0  0
    7.4435   -1.7677   27.2311 H   0  0  0  0  0  0  0  0  0  0  0  0
   10.8780   -0.7620   22.6151 H   0  0  0  0  0  0  0  0  0  0  0  0
   10.2951   -1.6625   21.3839 H   0  0  0  0  0  0  0  0  0  0  0  0
    9.4112   -3.2392   22.8028 H   0  0  0  0  0  0  0  0  0  0  0  0
   10.6923   -2.7791   23.7048 H   0  0  0  0  0  0  0  0  0  0  0  0
    6.5970   -1.1334   21.1911 H   0  0  0  0  0  0  0  0  0  0  0  0
    7.9285   -0.2245   18.2930 H   0  0  0  0  0  0  0  0  0  0  0  0
    4.8998    1.7092   21.8182 H   0  0  0  0  0  0  0  0  0  0  0  0
    4.0022    0.4095   21.4038 H   0  0  0  0  0  0  0  0  0  0  0  0
    4.9652    2.1103   16.7873 H   0  0  0  0  0  0  0  0  0  0  0  0
    2.5801    2.5301   21.1292 H   0  0  0  0  0  0  0  0  0  0  0  0
  1  2  1  0  0  0  0
  2  3  2  0  0  0  0
  2  4  1  0  0  0  0
  3  5  1  0  0  0  0
  3  6  1  0  0  0  0
  4  7  2  0  0  0  0
  5  8  1  0  0  0  0
  5  9  1  0  0  0  0
  6 10  2  0  0  0  0
  6 11  1  0  0  0  0
  8 12  2  0  0  0  0
  8 13  1  0  0  0  0
 10 14  1  0  0  0  0
 13 15  1  0  0  0  0
 15 16  2  0  0  0  0
 15 17  1  0  0  0  0
 16 18  1  0  0  0  0
 16 19  1  0  0  0  0
 17 20  2  0  0  0  0
 18 21  1  0  0  0  0
 18 22  2  0  0  0  0
 19 23  1  0  0  0  0
 21 24  2  0  0  0  0
  7 10  1  0  0  0  0
  9 11  1  0  0  0  0
 20 22  1  0  0  0  0
 21 23  1  0  0  0  0
  4 25  1  0  0  0  0
  7 26  1  0  0  0  0
  9 27  1  0  0  0  0
  9 28  1  0  0  0  0
 11 29  1  0  0  0  0
 11 30  1  0  0  0  0
 13 31  1  0  0  0  0
 17 32  1  0  0  0  0
 19 33  1  0  0  0  0
 19 34  1  0  0  0  0
 22 35  1  0  0  0  0
 23 36  1  0  0  0  0
M  END
> <BIOSOLVEIT.HYDE_ESTIMATED_AFFINITY_LOWER_BOUNDARY [nM]>
5608.428357

> <BIOSOLVEIT.HYDE_ESTIMATED_AFFINITY_UPPER_BOUNDARY [nM]>
557230.516939

> <BIOSOLVEIT.HYDE_LIGAND_EFFICIENCY range: ++, +, 0, -, -->
-

> <BIOSOLVEIT.HYDE_LIGAND_LIPOPHILIC_EFFICIENCY range: ++, +, 0, -, -->
--

> <BIOSOLVEIT.INTER_CLASH range: red, yellow, green>
green

> <BIOSOLVEIT.INTRA_CLASH range: red, yellow, green>
green

> <BIOSOLVEIT.LOGP>
3.2264

> <BIOSOLVEIT.MOLECULAR WEIGHT>
363.203

> <BIOSOLVEIT.MOLECULE_CHECKSUM>
LTI0LjI3Mzc7MS4wMTE0

> <BIOSOLVEIT.TORSION_QUALITY range: red, yellow, green, not rotatable>
yellow

> <BIOSOLVEIT.TPSA>
74.33

> <BIOSOLVEIT.SEESAR_FAVORITE>
favorite

> <smc_score>
0.75

> <QED_score>
0.817

> <distance>
0.685

> <SimilarityPheSA_1>
0.671

> <Smiles>
O=C1NCc2c(NC(=O)N3CCc4c(Cl)ccc(Cl)c43)cncc21

> <Similarity_SkelSpheres>
0.633

> <Cluster No>
412.0

> <QueryID>
ALP-POS-ce760d3f-2

> <SimilarityPheSA>
0.6708

> <Postera series>
3-aminopyridine-like

> <PDB_code>
Mpro-x12659

> <Approach>
DGM_focussed_RL

> <ID>
20210618_722

> <SimilarityPheSA_2>
0.761

> <OPTIBRIUM.logD>
2.25628

> <OPTIBRIUM.BBB category>
-

> <OPTIBRIUM.logP>
2.25628

> <OPTIBRIUM.P-gp category>
no

> <OPTIBRIUM.logS>
1.27111

> <OPTIBRIUM.HIA category>
+

> <OPTIBRIUM.PPB90 category>
high

> <OPTIBRIUM.2D6 affinity category>
medium

> <OPTIBRIUM.hERG pIC50>
4.67445

> <OPTIBRIUM.2C9 pKi>
5.60181

> <OPTIBRIUM.BBB log([brain]:[blood])>
0.329193

> <OPTIBRIUM.logS @ pH7.4>
1.27111

$$$$
Compound 115_1_002
haSeeSAR  07122111353D 1   1.00000     0.00000     0
SeeSAR 11.0.2 hazemaj
 54 57  0  0  0  0            999 V2000
    8.6333   -0.4088   26.7600 Cl  0  0  0  0  0  0  0  0  0  0  0  0
    7.9282    1.1000   26.1318 C   0  0  0  0  0  0  0  0  0  0  0  0
    7.7043    2.1785   26.9812 C   0  0  0  0  0  0  0  0  0  0  0  0
    7.5974    1.2052   24.7842 C   0  0  0  0  0  0  0  0  0  0  0  0
    8.1296    2.0354   28.7037 Cl  0  0  0  0  0  0  0  0  0  0  0  0
    7.1537    3.3614   26.4985 C   0  0  0  0  0  0  0  0  0  0  0  0
    7.0468    2.3851   24.2936 C   0  0  0  0  0  0  0  0  0  0  0  0
    7.8382    0.0320   23.8481 C   0  0  0  0  0  0  0  0  0  0  0  0
    6.8270    3.4586   25.1499 C   0  0  0  0  0  0  0  0  0  0  0  0
    8.7662    0.4377   22.7827 N   0  0  0  0  0  0  0  0  0  0  0  0
    8.3387    0.5342   21.5344 C   0  0  0  0  0  0  0  0  0  0  0  0
   10.1692    0.7360   23.1043 C   0  0  0  0  0  0  0  0  0  0  0  0
    8.7679    1.4275   20.8042 O   0  0  0  0  0  0  0  0  0  0  0  0
    7.3175   -0.4577   21.0019 C   0  0  0  0  0  0  0  0  0  0  0  0
   10.7718   -0.4290   23.8723 C   0  0  1  0  0  0  0  0  0  0  0  0
    6.5689    0.1636   19.8330 C   0  0  0  0  0  0  0  0  0  0  0  0
   11.2624   -1.5429   22.9591 C   0  0  0  0  0  0  0  0  0  0  0  0
   11.9606   -0.0176   24.7274 C   0  0  0  0  0  0  0  0  0  0  0  0
    5.4255    0.9455   19.9965 C   0  0  0  0  0  0  0  0  0  0  0  0
    7.0574   -0.0646   18.5500 C   0  0  0  0  0  0  0  0  0  0  0  0
   12.5034   -1.1277   22.1842 C   0  0  0  0  0  0  0  0  0  0  0  0
   12.9834    0.6933   23.8548 C   0  0  0  0  0  0  0  0  0  0  0  0
    4.7903    1.4849   18.8813 C   0  0  0  0  0  0  0  0  0  0  0  0
    4.8851    1.2137   21.2522 C   0  0  0  0  0  0  0  0  0  0  0  0
    6.4290    0.4640   17.4889 N   0  0  0  0  0  0  0  0  0  0  0  0
   12.8062   -1.6924   21.1485 O   0  0  0  0  0  0  0  0  0  0  0  0
   13.3078   -0.0725   22.6380 N   0  0  0  0  0  0  0  0  0  0  0  0
    5.3286    1.2189   17.6260 C   0  0  0  0  0  0  0  0  0  0  0  0
    3.6493    2.2705   19.0117 C   0  0  0  0  0  0  0  0  0  0  0  0
    3.7458    1.9943   21.4130 C   0  0  0  0  0  0  0  0  0  0  0  0
    3.1339    2.5200   20.2792 C   0  0  0  0  0  0  0  0  0  0  0  0
    6.9945    4.1331   27.1141 H   0  0  0  0  0  0  0  0  0  0  0  0
    6.8093    2.4611   23.3252 H   0  0  0  0  0  0  0  0  0  0  0  0
    6.9700   -0.2546   23.4427 H   0  0  0  0  0  0  0  0  0  0  0  0
    8.2333   -0.7291   24.3624 H   0  0  0  0  0  0  0  0  0  0  0  0
    6.4318    4.3055   24.7940 H   0  0  0  0  0  0  0  0  0  0  0  0
   10.2141    1.5633   23.6643 H   0  0  0  0  0  0  0  0  0  0  0  0
   10.6823    0.8783   22.2578 H   0  0  0  0  0  0  0  0  0  0  0  0
    6.6694   -0.6905   21.7269 H   0  0  0  0  0  0  0  0  0  0  0  0
    7.7860   -1.2862   20.6950 H   0  0  0  0  0  0  0  0  0  0  0  0
   10.0677   -0.8049   24.4747 H   0  0  0  0  0  0  0  0  0  0  0  0
   10.5372   -1.7736   22.3104 H   0  0  0  0  0  0  0  0  0  0  0  0
   11.4803   -2.3454   23.5146 H   0  0  0  0  0  0  0  0  0  0  0  0
   12.3765   -0.8306   25.1351 H   0  0  0  0  0  0  0  0  0  0  0  0
   11.6536    0.5989   25.4525 H   0  0  0  0  0  0  0  0  0  0  0  0
    7.8767   -0.6227   18.4188 H   0  0  0  0  0  0  0  0  0  0  0  0
   13.8212    0.8264   24.3842 H   0  0  0  0  0  0  0  0  0  0  0  0
   12.6140    1.5830   23.5861 H   0  0  0  0  0  0  0  0  0  0  0  0
    5.3303    0.8332   22.0628 H   0  0  0  0  0  0  0  0  0  0  0  0
   14.1282    0.1682   22.1192 H   0  0  0  0  0  0  0  0  0  0  0  0
    4.8876    1.5970   16.8120 H   0  0  0  0  0  0  0  0  0  0  0  0
    3.2041    2.6522   18.2016 H   0  0  0  0  0  0  0  0  0  0  0  0
    3.3741    2.1740   22.3238 H   0  0  0  0  0  0  0  0  0  0  0  0
    2.3138    3.0839   20.3768 H   0  0  0  0  0  0  0  0  0  0  0  0
  1  2  1  0  0  0  0
  2  3  2  0  0  0  0
  2  4  1  0  0  0  0
  3  5  1  0  0  0  0
  3  6  1  0  0  0  0
  4  7  2  0  0  0  0
  4  8  1  0  0  0  0
  6  9  2  0  0  0  0
  8 10  1  0  0  0  0
 10 11  1  0  0  0  0
 10 12  1  0  0  0  0
 11 13  2  0  0  0  0
 11 14  1  0  0  0  0
 12 15  1  0  0  0  0
 14 16  1  0  0  0  0
 15 17  1  0  0  0  0
 15 18  1  0  0  0  0
 16 19  1  0  0  0  0
 16 20  2  0  0  0  0
 17 21  1  0  0  0  0
 18 22  1  0  0  0  0
 19 23  1  0  0  0  0
 19 24  2  0  0  0  0
 20 25  1  0  0  0  0
 21 26  2  0  0  0  0
 21 27  1  0  0  0  0
 23 28  1  0  0  0  0
 23 29  2  0  0  0  0
 24 30  1  0  0  0  0
 29 31  1  0  0  0  0
  7  9  1  0  0  0  0
 22 27  1  0  0  0  0
 25 28  2  0  0  0  0
 30 31  2  0  0  0  0
  6 32  1  0  0  0  0
  7 33  1  0  0  0  0
  8 34  1  0  0  0  0
  8 35  1  0  0  0  0
  9 36  1  0  0  0  0
 12 37  1  0  0  0  0
 12 38  1  0  0  0  0
 14 39  1  0  0  0  0
 14 40  1  0  0  0  0
 15 41  1  0  0  0  0
 17 42  1  0  0  0  0
 17 43  1  0  0  0  0
 18 44  1  0  0  0  0
 18 45  1  0  0  0  0
 20 46  1  0  0  0  0
 22 47  1  0  0  0  0
 22 48  1  0  0  0  0
 24 49  1  0  0  0  0
 27 50  1  0  0  0  0
 28 51  1  0  0  0  0
 29 52  1  0  0  0  0
 30 53  1  0  0  0  0
 31 54  1  0  0  0  0
M  END
> <BIOSOLVEIT.HYDE_ESTIMATED_AFFINITY_LOWER_BOUNDARY [nM]>
5625.701088

> <BIOSOLVEIT.HYDE_ESTIMATED_AFFINITY_UPPER_BOUNDARY [nM]>
558946.664838

> <BIOSOLVEIT.HYDE_LIGAND_EFFICIENCY range: ++, +, 0, -, -->
--

> <BIOSOLVEIT.HYDE_LIGAND_LIPOPHILIC_EFFICIENCY range: ++, +, 0, -, -->
--

> <BIOSOLVEIT.INTER_CLASH range: red, yellow, green>
green

> <BIOSOLVEIT.INTRA_CLASH range: red, yellow, green>
green

> <BIOSOLVEIT.LOGP>
4.6391

> <BIOSOLVEIT.MOLECULAR WEIGHT>
456.371

> <BIOSOLVEIT.MOLECULE_CHECKSUM>
LTI0LjI2NjswLjc4Mjc3NQ==

> <BIOSOLVEIT.TORSION_QUALITY range: red, yellow, green, not rotatable>
green

> <BIOSOLVEIT.TPSA>
62.3

> <BIOSOLVEIT.SEESAR_FAVORITE>
favorite

> <smc_score>
0.563

> <QED_score>
0.588

> <distance>
0.577

> <SimilarityPheSA_1>
0.637

> <Smiles>
O=C1CC(CN(Cc2cccc(Cl)c2Cl)C(=O)Cc2cncc3ccccc23)CCN1

> <Similarity_SkelSpheres>
0.752

> <Cluster No>
53.0

> <QueryID>
ALP-POS-c59291d4-4

> <SimilarityPheSA>
0.6367

> <Postera series>
3-aminopyridine-like

> <PDB_code>
Mpro-x10820

> <Approach>
DGM_focussed_RL

> <ID>
20210618_114

> <SimilarityPheSA_2>
0.708

> <OPTIBRIUM.logD>
3.63568

> <OPTIBRIUM.BBB category>
-

> <OPTIBRIUM.logP>
3.63568

> <OPTIBRIUM.P-gp category>
yes

> <OPTIBRIUM.logS>
0.933199

> <OPTIBRIUM.HIA category>
+

> <OPTIBRIUM.PPB90 category>
high

> <OPTIBRIUM.2D6 affinity category>
high

> <OPTIBRIUM.hERG pIC50>
5.21475

> <OPTIBRIUM.2C9 pKi>
5.6623

> <OPTIBRIUM.BBB log([brain]:[blood])>
-0.305748

> <OPTIBRIUM.logS @ pH7.4>
0.933199

$$$$
Compound 723_1_01
haSeeSAR  07122111353D 1   1.00000     0.00000     0
SeeSAR 11.0.2 hazemaj
 36 39  0  0  0  0            999 V2000
    6.3551    1.0881   23.7228 Cl  0  0  0  0  0  0  0  0  0  0  0  0
    7.2813   -0.2997   24.3409 C   0  0  0  0  0  0  0  0  0  0  0  0
    8.3164   -0.8841   23.6158 C   0  0  0  0  0  0  0  0  0  0  0  0
    6.9260   -0.7689   25.5998 C   0  0  0  0  0  0  0  0  0  0  0  0
    8.8707   -0.6305   22.3612 N   0  0  0  0  0  0  0  0  0  0  0  0
    8.9635   -1.9627   24.1875 C   0  0  0  0  0  0  0  0  0  0  0  0
    7.6081   -1.8445   26.1580 C   0  0  0  0  0  0  0  0  0  0  0  0
    8.2889    0.0526   21.2789 C   0  0  0  0  0  0  0  0  0  0  0  0
   10.2015   -1.2356   22.3158 C   0  0  0  0  0  0  0  0  0  0  0  0
    8.6421   -2.4505   25.4513 C   0  0  0  0  0  0  0  0  0  0  0  0
    9.9933   -2.4470   23.1997 C   0  0  0  0  0  0  0  0  0  0  0  0
    8.8422    1.0054   20.8033 O   0  0  0  0  0  0  0  0  0  0  0  0
    7.0901   -0.3694   20.7671 N   0  0  0  0  0  0  0  0  0  0  0  0
    9.5286   -3.8270   26.1482 Cl  0  0  0  0  0  0  0  0  0  0  0  0
    6.5102    0.3116   19.6883 C   0  0  0  0  0  0  0  0  0  0  0  0
    5.3098    0.9992   19.8826 C   0  0  0  0  0  0  0  0  0  0  0  0
    7.0976    0.2954   18.4271 C   0  0  0  0  0  0  0  0  0  0  0  0
    4.7618    1.6775   18.8251 C   0  0  0  0  0  0  0  0  0  0  0  0
    4.3995    1.2199   21.0809 C   0  0  0  0  0  0  0  0  0  0  0  0
    6.5139    0.9510   17.4110 N   0  0  0  0  0  0  0  0  0  0  0  0
    3.5579    2.3563   19.2517 C   0  0  0  0  0  0  0  0  0  0  0  0
    5.3745    1.6382   17.5763 C   0  0  0  0  0  0  0  0  0  0  0  0
    3.3327    2.1027   20.6024 N   0  0  0  0  0  0  0  0  0  0  0  0
    2.8264    3.0415   18.5531 O   0  0  0  0  0  0  0  0  0  0  0  0
    6.1803   -0.3332   26.1039 H   0  0  0  0  0  0  0  0  0  0  0  0
    7.3560   -2.1815   27.0651 H   0  0  0  0  0  0  0  0  0  0  0  0
   10.8973   -0.6226   22.6898 H   0  0  0  0  0  0  0  0  0  0  0  0
   10.4545   -1.4986   21.3848 H   0  0  0  0  0  0  0  0  0  0  0  0
    9.6497   -3.2238   22.6719 H   0  0  0  0  0  0  0  0  0  0  0  0
   10.8416   -2.7068   23.6612 H   0  0  0  0  0  0  0  0  0  0  0  0
    6.6290   -1.1634   21.1634 H   0  0  0  0  0  0  0  0  0  0  0  0
    7.9517   -0.2028   18.2779 H   0  0  0  0  0  0  0  0  0  0  0  0
    4.9035    1.6535   21.8279 H   0  0  0  0  0  0  0  0  0  0  0  0
    4.0191    0.3505   21.3961 H   0  0  0  0  0  0  0  0  0  0  0  0
    4.9653    2.1222   16.8028 H   0  0  0  0  0  0  0  0  0  0  0  0
    2.5758    2.4603   21.1494 H   0  0  0  0  0  0  0  0  0  0  0  0
  1  2  1  0  0  0  0
  2  3  2  0  0  0  0
  2  4  1  0  0  0  0
  3  5  1  0  0  0  0
  3  6  1  0  0  0  0
  4  7  2  0  0  0  0
  5  8  1  0  0  0  0
  5  9  1  0  0  0  0
  6 10  2  0  0  0  0
  6 11  1  0  0  0  0
  8 12  2  0  0  0  0
  8 13  1  0  0  0  0
 10 14  1  0  0  0  0
 13 15  1  0  0  0  0
 15 16  2  0  0  0  0
 15 17  1  0  0  0  0
 16 18  1  0  0  0  0
 16 19  1  0  0  0  0
 17 20  2  0  0  0  0
 18 21  1  0  0  0  0
 18 22  2  0  0  0  0
 19 23  1  0  0  0  0
 21 24  2  0  0  0  0
  7 10  1  0  0  0  0
  9 11  1  0  0  0  0
 20 22  1  0  0  0  0
 21 23  1  0  0  0  0
  4 25  1  0  0  0  0
  7 26  1  0  0  0  0
  9 27  1  0  0  0  0
  9 28  1  0  0  0  0
 11 29  1  0  0  0  0
 11 30  1  0  0  0  0
 13 31  1  0  0  0  0
 17 32  1  0  0  0  0
 19 33  1  0  0  0  0
 19 34  1  0  0  0  0
 22 35  1  0  0  0  0
 23 36  1  0  0  0  0
M  END
> <BIOSOLVEIT.HYDE_ESTIMATED_AFFINITY_LOWER_BOUNDARY [nM]>
6008.704490

> <BIOSOLVEIT.HYDE_ESTIMATED_AFFINITY_UPPER_BOUNDARY [nM]>
597000.317390

> <BIOSOLVEIT.HYDE_LIGAND_EFFICIENCY range: ++, +, 0, -, -->
-

> <BIOSOLVEIT.HYDE_LIGAND_LIPOPHILIC_EFFICIENCY range: ++, +, 0, -, -->
--

> <BIOSOLVEIT.INTER_CLASH range: red, yellow, green>
green

> <BIOSOLVEIT.INTRA_CLASH range: red, yellow, green>
green

> <BIOSOLVEIT.LOGP>
3.2264

> <BIOSOLVEIT.MOLECULAR WEIGHT>
363.203

> <BIOSOLVEIT.MOLECULE_CHECKSUM>
LTI0LjEwMjg7MS4wMDQyOA==

> <BIOSOLVEIT.TORSION_QUALITY range: red, yellow, green, not rotatable>
yellow

> <BIOSOLVEIT.TPSA>
74.33

> <BIOSOLVEIT.SEESAR_FAVORITE>
favorite

> <smc_score>
0.75

> <QED_score>
0.817

> <distance>
0.685

> <SimilarityPheSA_1>
0.671

> <Smiles>
O=C1NCc2c(NC(=O)N3CCc4c(Cl)ccc(Cl)c43)cncc21

> <Similarity_SkelSpheres>
0.633

> <Cluster No>
412.0

> <QueryID>
ALP-POS-ce760d3f-2

> <SimilarityPheSA>
0.6708

> <Postera series>
3-aminopyridine-like

> <PDB_code>
Mpro-x12659

> <Approach>
DGM_focussed_RL

> <ID>
20210618_722

> <SimilarityPheSA_2>
0.761

> <OPTIBRIUM.logD>
2.25628

> <OPTIBRIUM.BBB category>
-

> <OPTIBRIUM.logP>
2.25628

> <OPTIBRIUM.P-gp category>
no

> <OPTIBRIUM.logS>
1.27111

> <OPTIBRIUM.HIA category>
+

> <OPTIBRIUM.PPB90 category>
high

> <OPTIBRIUM.2D6 affinity category>
medium

> <OPTIBRIUM.hERG pIC50>
4.67445

> <OPTIBRIUM.2C9 pKi>
5.60181

> <OPTIBRIUM.BBB log([brain]:[blood])>
0.329193

> <OPTIBRIUM.logS @ pH7.4>
1.27111

$$$$
Compound 577_1_04
haSeeSAR  07122111353D 1   1.00000     0.00000     0
SeeSAR 11.0.2 hazemaj
 40 43  0  0  0  0            999 V2000
    8.3846   -1.4635   29.1182 Cl  0  0  0  0  0  0  0  0  0  0  0  0
    8.8113   -1.1757   27.4147 C   0  0  0  0  0  0  0  0  0  0  0  0
    8.9062    0.1242   26.9321 C   0  0  0  0  0  0  0  0  0  0  0  0
    9.0463   -2.2595   26.5752 C   0  0  0  0  0  0  0  0  0  0  0  0
    8.6004    1.4958   28.0245 Cl  0  0  0  0  0  0  0  0  0  0  0  0
    9.2371    0.3658   25.6032 C   0  0  0  0  0  0  0  0  0  0  0  0
    9.3779   -2.0195   25.2461 C   0  0  0  0  0  0  0  0  0  0  0  0
    9.4718   -0.7186   24.7652 C   0  0  0  0  0  0  0  0  0  0  0  0
    9.6064   -3.0461   24.4342 F   0  0  0  0  0  0  0  0  0  0  0  0
    9.8340   -0.4752   23.3087 C   0  0  0  0  0  0  0  0  0  0  0  0
    8.6259   -0.5768   22.4802 N   0  0  0  0  0  0  0  0  0  0  0  0
    8.3182    0.2261   21.3842 C   0  0  0  0  0  0  0  0  0  0  0  0
    7.5359   -1.5335   22.7239 C   0  0  0  0  0  0  0  0  0  0  0  0
    8.9944    1.1702   20.9869 O   0  0  0  0  0  0  0  0  0  0  0  0
    7.1296   -0.2107   20.8099 N   0  0  0  0  0  0  0  0  0  0  0  0
    6.6576   -1.4181   21.4904 C   0  0  0  0  0  0  0  0  0  0  0  0
    6.4880    0.3964   19.7225 C   0  0  0  0  0  0  0  0  0  0  0  0
    5.3173    1.1169   19.9281 C   0  0  0  0  0  0  0  0  0  0  0  0
    7.0202    0.2728   18.4438 C   0  0  0  0  0  0  0  0  0  0  0  0
    4.6007    1.3593   21.0631 N   0  0  0  0  0  0  0  0  0  0  0  0
    4.6807    1.7296   18.8698 C   0  0  0  0  0  0  0  0  0  0  0  0
    6.3853    0.8653   17.4218 N   0  0  0  0  0  0  0  0  0  0  0  0
    3.5519    2.0893   20.7602 C   0  0  0  0  0  0  0  0  0  0  0  0
    3.5860    2.3258   19.4183 N   0  0  0  0  0  0  0  0  0  0  0  0
    5.2566    1.5715   17.6098 C   0  0  0  0  0  0  0  0  0  0  0  0
    2.5826    3.1013   18.6740 C   0  0  0  0  0  0  0  0  0  0  0  0
    8.9779   -3.1952   26.9213 H   0  0  0  0  0  0  0  0  0  0  0  0
    9.3049    1.3015   25.2570 H   0  0  0  0  0  0  0  0  0  0  0  0
   10.5002   -1.1596   23.0120 H   0  0  0  0  0  0  0  0  0  0  0  0
   10.2290    0.4384   23.2115 H   0  0  0  0  0  0  0  0  0  0  0  0
    7.0252   -1.2873   23.5476 H   0  0  0  0  0  0  0  0  0  0  0  0
    7.8939   -2.4625   22.8190 H   0  0  0  0  0  0  0  0  0  0  0  0
    5.6963   -1.3238   21.7495 H   0  0  0  0  0  0  0  0  0  0  0  0
    6.7675   -2.2198   20.9029 H   0  0  0  0  0  0  0  0  0  0  0  0
    7.8599   -0.2477   18.2893 H   0  0  0  0  0  0  0  0  0  0  0  0
    2.8540    2.4133   21.3988 H   0  0  0  0  0  0  0  0  0  0  0  0
    4.8157    1.9974   16.8198 H   0  0  0  0  0  0  0  0  0  0  0  0
    1.8812    3.4320   19.3056 H   0  0  0  0  0  0  0  0  0  0  0  0
    3.0254    3.8804   18.2301 H   0  0  0  0  0  0  0  0  0  0  0  0
    2.1586    2.5190   17.9803 H   0  0  0  0  0  0  0  0  0  0  0  0
  1  2  1  0  0  0  0
  2  3  2  0  0  0  0
  2  4  1  0  0  0  0
  3  5  1  0  0  0  0
  3  6  1  0  0  0  0
  4  7  2  0  0  0  0
  6  8  2  0  0  0  0
  7  9  1  0  0  0  0
  8 10  1  0  0  0  0
 10 11  1  0  0  0  0
 11 12  1  0  0  0  0
 11 13  1  0  0  0  0
 12 14  2  0  0  0  0
 12 15  1  0  0  0  0
 13 16  1  0  0  0  0
 15 17  1  0  0  0  0
 17 18  2  0  0  0  0
 17 19  1  0  0  0  0
 18 20  1  0  0  0  0
 18 21  1  0  0  0  0
 19 22  2  0  0  0  0
 20 23  2  0  0  0  0
 21 24  1  0  0  0  0
 21 25  2  0  0  0  0
 24 26  1  0  0  0  0
  7  8  1  0  0  0  0
 15 16  1  0  0  0  0
 22 25  1  0  0  0  0
 23 24  1  0  0  0  0
  4 27  1  0  0  0  0
  6 28  1  0  0  0  0
 10 29  1  0  0  0  0
 10 30  1  0  0  0  0
 13 31  1  0  0  0  0
 13 32  1  0  0  0  0
 16 33  1  0  0  0  0
 16 34  1  0  0  0  0
 19 35  1  0  0  0  0
 23 36  1  0  0  0  0
 25 37  1  0  0  0  0
 26 38  1  0  0  0  0
 26 39  1  0  0  0  0
 26 40  1  0  0  0  0
M  END
> <BIOSOLVEIT.HYDE_ESTIMATED_AFFINITY_LOWER_BOUNDARY [nM]>
6755.758847

> <BIOSOLVEIT.HYDE_ESTIMATED_AFFINITY_UPPER_BOUNDARY [nM]>
671224.584679

> <BIOSOLVEIT.HYDE_LIGAND_EFFICIENCY range: ++, +, 0, -, -->
-

> <BIOSOLVEIT.HYDE_LIGAND_LIPOPHILIC_EFFICIENCY range: ++, +, 0, -, -->
--

> <BIOSOLVEIT.INTER_CLASH range: red, yellow, green>
green

> <BIOSOLVEIT.INTRA_CLASH range: red, yellow, green>
green

> <BIOSOLVEIT.LOGP>
3.8564

> <BIOSOLVEIT.MOLECULAR WEIGHT>
394.236

> <BIOSOLVEIT.MOLECULE_CHECKSUM>
LTIzLjgxMjM7MC45MTU4NTY=

> <BIOSOLVEIT.TORSION_QUALITY range: red, yellow, green, not rotatable>
yellow

> <BIOSOLVEIT.TPSA>
54.26

> <BIOSOLVEIT.SEESAR_FAVORITE>
favorite

> <smc_score>
0.938

> <QED_score>
0.634

> <distance>
0.688

> <SimilarityPheSA_1>
0.663

> <Smiles>
Cn1cnc2c(N3CCN(Cc4cc(Cl)c(Cl)cc4F)C3=O)cncc21

> <Similarity_SkelSpheres>
0.665

> <Cluster No>
309.0

> <QueryID>
MAT-POS-f7918075-5

> <SimilarityPheSA>
0.6625

> <Postera series>
3-aminopyridine-like

> <PDB_code>
Mpro-x11499

> <Approach>
DGM_focussed_RL

> <ID>
20210618_576

> <SimilarityPheSA_2>
0.827

> <OPTIBRIUM.logD>
3.22751

> <OPTIBRIUM.BBB category>
-

> <OPTIBRIUM.logP>
3.22751

> <OPTIBRIUM.P-gp category>
no

> <OPTIBRIUM.logS>
0.531667

> <OPTIBRIUM.HIA category>
+

> <OPTIBRIUM.PPB90 category>
high

> <OPTIBRIUM.2D6 affinity category>
medium

> <OPTIBRIUM.hERG pIC50>
5.93338

> <OPTIBRIUM.2C9 pKi>
5.66834

> <OPTIBRIUM.BBB log([brain]:[blood])>
-0.214779

> <OPTIBRIUM.logS @ pH7.4>
0.531667

$$$$
Compound 760_1_08
haSeeSAR  07122111353D 1   1.00000     0.00000     0
SeeSAR 11.0.2 hazemaj
 48 50  0  0  0  0            999 V2000
   13.5313    1.1028   23.0785 Cl  0  0  0  0  0  0  0  0  0  0  0  0
   12.0278    0.2212   22.7183 C   0  0  0  0  0  0  0  0  0  0  0  0
   12.0919   -1.0595   22.1794 C   0  0  0  0  0  0  0  0  0  0  0  0
   10.7974    0.8154   22.9772 C   0  0  0  0  0  0  0  0  0  0  0  0
   13.6731   -1.8096   21.8534 Cl  0  0  0  0  0  0  0  0  0  0  0  0
   10.9289   -1.7656   21.8896 C   0  0  0  0  0  0  0  0  0  0  0  0
    9.6372    0.1060   22.6865 C   0  0  0  0  0  0  0  0  0  0  0  0
    9.6958   -1.1747   22.1468 C   0  0  0  0  0  0  0  0  0  0  0  0
    8.2899    0.7517   22.9674 C   0  0  0  0  0  0  0  0  0  0  0  0
    7.7756    1.4215   21.7035 C   0  0  0  0  0  0  0  0  0  0  0  0
    8.5525    2.0370   20.9734 O   0  0  0  0  0  0  0  0  0  0  0  0
    6.4180    1.3382   21.3696 N   0  0  0  0  0  0  0  0  0  0  0  0
    5.6518    2.4388   20.7745 C   0  0  1  0  0  0  0  0  0  0  0  0
    5.5970    0.1388   21.5700 C   0  0  0  0  0  0  0  0  0  0  0  0
    4.5953    1.7711   19.9260 C   0  0  0  0  0  0  0  0  0  0  0  0
    4.9554    3.2412   21.8618 C   0  0  0  0  0  0  0  0  0  0  0  0
    5.5107   -0.4802   20.1891 C   0  0  0  0  0  0  0  0  0  0  0  0
    5.2940    0.6499   19.2877 N   0  0  0  0  0  0  0  0  0  0  0  0
    5.9551    3.7197   22.8367 N   0  0  0  0  0  0  0  0  0  0  0  0
    5.7276    0.6620   17.9565 C   0  0  0  0  0  0  0  0  0  0  0  0
    6.9244    4.6862   22.6116 C   0  0  0  0  0  0  0  0  0  0  0  0
    6.1595    3.2224   24.1975 C   0  0  0  0  0  0  0  0  0  0  0  0
    6.2850   -0.3275   17.4817 O   0  0  0  0  0  0  0  0  0  0  0  0
    5.5099    1.8970   17.0976 C   0  0  0  0  0  0  0  0  0  0  0  0
    7.1317    5.2314   21.5430 O   0  0  0  0  0  0  0  0  0  0  0  0
    7.6165    4.9642   23.7432 O   0  0  0  0  0  0  0  0  0  0  0  0
    6.9784    4.3247   24.8365 C   0  0  0  0  0  0  0  0  0  0  0  0
   10.7479    1.7357   23.3651 H   0  0  0  0  0  0  0  0  0  0  0  0
   10.9785   -2.6859   21.5015 H   0  0  0  0  0  0  0  0  0  0  0  0
    8.8515   -1.6707   21.9436 H   0  0  0  0  0  0  0  0  0  0  0  0
    8.3923    1.4360   23.6893 H   0  0  0  0  0  0  0  0  0  0  0  0
    7.6395    0.0514   23.2618 H   0  0  0  0  0  0  0  0  0  0  0  0
    6.2403    3.0252   20.2180 H   0  0  0  0  0  0  0  0  0  0  0  0
    4.6879    0.3826   21.9079 H   0  0  0  0  0  0  0  0  0  0  0  0
    6.0349   -0.4883   22.2141 H   0  0  0  0  0  0  0  0  0  0  0  0
    4.2412    2.4049   19.2383 H   0  0  0  0  0  0  0  0  0  0  0  0
    3.8417    1.4409   20.4944 H   0  0  0  0  0  0  0  0  0  0  0  0
    4.2867    2.6616   22.3273 H   0  0  0  0  0  0  0  0  0  0  0  0
    4.4890    4.0245   21.4510 H   0  0  0  0  0  0  0  0  0  0  0  0
    4.7466   -1.1233   20.1381 H   0  0  0  0  0  0  0  0  0  0  0  0
    6.3612   -0.9545   19.9616 H   0  0  0  0  0  0  0  0  0  0  0  0
    6.6608    2.3571   24.1935 H   0  0  0  0  0  0  0  0  0  0  0  0
    5.2875    3.1003   24.6714 H   0  0  0  0  0  0  0  0  0  0  0  0
    5.8773    1.7350   16.1818 H   0  0  0  0  0  0  0  0  0  0  0  0
    4.5309    2.0910   17.0346 H   0  0  0  0  0  0  0  0  0  0  0  0
    5.9784    2.6776   17.5113 H   0  0  0  0  0  0  0  0  0  0  0  0
    7.6540    3.9439   25.4679 H   0  0  0  0  0  0  0  0  0  0  0  0
    6.3882    4.9659   25.3270 H   0  0  0  0  0  0  0  0  0  0  0  0
  1  2  1  0  0  0  0
  2  3  2  0  0  0  0
  2  4  1  0  0  0  0
  3  5  1  0  0  0  0
  3  6  1  0  0  0  0
  4  7  2  0  0  0  0
  6  8  2  0  0  0  0
  7  9  1  0  0  0  0
  9 10  1  0  0  0  0
 10 11  2  0  0  0  0
 10 12  1  0  0  0  0
 12 13  1  0  0  0  0
 12 14  1  0  0  0  0
 13 15  1  0  0  0  0
 13 16  1  0  0  0  0
 14 17  1  0  0  0  0
 15 18  1  0  0  0  0
 16 19  1  0  0  0  0
 18 20  1  0  0  0  0
 19 21  1  0  0  0  0
 19 22  1  0  0  0  0
 20 23  2  0  0  0  0
 20 24  1  0  0  0  0
 21 25  2  0  0  0  0
 21 26  1  0  0  0  0
 22 27  1  0  0  0  0
  7  8  1  0  0  0  0
 17 18  1  0  0  0  0
 26 27  1  0  0  0  0
  4 28  1  0  0  0  0
  6 29  1  0  0  0  0
  8 30  1  0  0  0  0
  9 31  1  0  0  0  0
  9 32  1  0  0  0  0
 13 33  1  0  0  0  0
 14 34  1  0  0  0  0
 14 35  1  0  0  0  0
 15 36  1  0  0  0  0
 15 37  1  0  0  0  0
 16 38  1  0  0  0  0
 16 39  1  0  0  0  0
 17 40  1  0  0  0  0
 17 41  1  0  0  0  0
 22 42  1  0  0  0  0
 22 43  1  0  0  0  0
 24 44  1  0  0  0  0
 24 45  1  0  0  0  0
 24 46  1  0  0  0  0
 27 47  1  0  0  0  0
 27 48  1  0  0  0  0
M  END
> <BIOSOLVEIT.HYDE_ESTIMATED_AFFINITY_LOWER_BOUNDARY [nM]>
6773.810192

> <BIOSOLVEIT.HYDE_ESTIMATED_AFFINITY_UPPER_BOUNDARY [nM]>
673018.092560

> <BIOSOLVEIT.HYDE_LIGAND_EFFICIENCY range: ++, +, 0, -, -->
-

> <BIOSOLVEIT.HYDE_LIGAND_LIPOPHILIC_EFFICIENCY range: ++, +, 0, -, -->
-

> <BIOSOLVEIT.INTER_CLASH range: red, yellow, green>
green

> <BIOSOLVEIT.INTRA_CLASH range: red, yellow, green>
green

> <BIOSOLVEIT.LOGP>
2.0474

> <BIOSOLVEIT.MOLECULAR WEIGHT>
414.287

> <BIOSOLVEIT.MOLECULE_CHECKSUM>
LTIzLjgwNTc7MC44ODE2OTE=

> <BIOSOLVEIT.TORSION_QUALITY range: red, yellow, green, not rotatable>
green

> <BIOSOLVEIT.TPSA>
70.16

> <BIOSOLVEIT.SEESAR_FAVORITE>
favorite

> <smc_score>
0.563

> <QED_score>
0.756

> <distance>
0.732

> <SimilarityPheSA_1>
0.63

> <Smiles>
CC(=O)N1CCN(C(=O)Cc2ccc(Cl)c(Cl)c2)C(CN2CCOC2=O)C1

> <Similarity_SkelSpheres>
0.618

> <Cluster No>
12.0

> <QueryID>
MAT-POS-bb423b95-1

> <SimilarityPheSA>
0.6302

> <Postera series>
3-aminopyridine-like

> <PDB_code>
Mpro-x11542

> <Approach>
DGM_exploratory_RL

> <ID>
20210628_30

> <SimilarityPheSA_2>
0.613

> <OPTIBRIUM.logD>
1.39605

> <OPTIBRIUM.BBB category>
-

> <OPTIBRIUM.logP>
1.39605

> <OPTIBRIUM.P-gp category>
yes

> <OPTIBRIUM.logS>
3.56248

> <OPTIBRIUM.HIA category>
+

> <OPTIBRIUM.PPB90 category>
low

> <OPTIBRIUM.2D6 affinity category>
medium

> <OPTIBRIUM.hERG pIC50>
4.67136

> <OPTIBRIUM.2C9 pKi>
4.76795

> <OPTIBRIUM.BBB log([brain]:[blood])>
-0.889797

> <OPTIBRIUM.logS @ pH7.4>
3.56248

$$$$
Compound 330_1_06
haSeeSAR  07122111353D 1   1.00000     0.00000     0
SeeSAR 11.0.2 hazemaj
 47 50  0  0  0  0            999 V2000
    8.3695    5.0300   29.8922 Cl  0  0  0  0  0  0  0  0  0  0  0  0
    7.9514    4.0708   28.4517 C   0  0  0  0  0  0  0  0  0  0  0  0
    7.3359    4.6812   27.3642 C   0  0  0  0  0  0  0  0  0  0  0  0
    8.2474    2.7127   28.4259 C   0  0  0  0  0  0  0  0  0  0  0  0
    6.9668    6.4213   27.4230 Cl  0  0  0  0  0  0  0  0  0  0  0  0
    7.0064    3.9414   26.2328 C   0  0  0  0  0  0  0  0  0  0  0  0
    7.9154    1.9783   27.2930 C   0  0  0  0  0  0  0  0  0  0  0  0
    7.2993    2.5821   26.2022 C   0  0  0  0  0  0  0  0  0  0  0  0
    8.2321    0.4920   27.2472 C   0  0  0  0  0  0  0  0  0  0  0  0
    8.0985    0.0057   25.8689 N   0  0  0  0  0  0  0  0  0  0  0  0
    9.1003    0.0745   24.9062 C   0  0  0  0  0  0  0  0  0  0  0  0
    6.8971   -0.5995   25.2700 C   0  0  0  0  0  0  0  0  0  0  0  0
   10.1901    0.5914   25.1059 O   0  0  0  0  0  0  0  0  0  0  0  0
    8.6841   -0.5257   23.7101 N   0  0  0  0  0  0  0  0  0  0  0  0
    7.3486   -1.0998   23.9129 C   0  0  0  0  0  0  0  0  0  0  0  0
    9.4767   -0.5908   22.4698 C   0  0  0  0  0  0  0  0  0  0  0  0
    8.7015    0.0640   21.3381 C   0  0  0  0  0  0  0  0  0  0  0  0
    9.0692    1.1488   20.8873 O   0  0  0  0  0  0  0  0  0  0  0  0
    7.6316   -0.5321   20.8378 N   0  0  0  0  0  0  0  0  0  0  0  0
    6.9164    0.0720   19.7935 C   0  0  0  0  0  0  0  0  0  0  0  0
    5.7207    0.7345   20.0711 C   0  0  0  0  0  0  0  0  0  0  0  0
    7.3735    0.0200   18.4799 C   0  0  0  0  0  0  0  0  0  0  0  0
    4.9928    1.3524   19.0711 C   0  0  0  0  0  0  0  0  0  0  0  0
    4.9770    0.9258   21.3743 C   0  0  0  0  0  0  0  0  0  0  0  0
    6.6555    0.6084   17.5100 N   0  0  0  0  0  0  0  0  0  0  0  0
    3.8574    1.9376   19.6387 N   0  0  0  0  0  0  0  0  0  0  0  0
    5.5091    1.2566   17.7798 C   0  0  0  0  0  0  0  0  0  0  0  0
    4.0760    2.0974   21.0807 C   0  0  0  0  0  0  0  0  0  0  0  0
    8.6904    2.2726   29.2069 H   0  0  0  0  0  0  0  0  0  0  0  0
    6.5643    4.3816   25.4513 H   0  0  0  0  0  0  0  0  0  0  0  0
    7.0666    2.0386   25.3955 H   0  0  0  0  0  0  0  0  0  0  0  0
    7.5953   -0.0029   27.8384 H   0  0  0  0  0  0  0  0  0  0  0  0
    9.1682    0.3407   27.5648 H   0  0  0  0  0  0  0  0  0  0  0  0
    6.1720    0.0820   25.1705 H   0  0  0  0  0  0  0  0  0  0  0  0
    6.5672   -1.3576   25.8326 H   0  0  0  0  0  0  0  0  0  0  0  0
    6.7218   -0.7881   23.1987 H   0  0  0  0  0  0  0  0  0  0  0  0
    7.3924   -2.0989   23.9050 H   0  0  0  0  0  0  0  0  0  0  0  0
    9.6582   -1.5469   22.2400 H   0  0  0  0  0  0  0  0  0  0  0  0
   10.3432   -0.1095   22.6024 H   0  0  0  0  0  0  0  0  0  0  0  0
    7.3329   -1.4133   21.2041 H   0  0  0  0  0  0  0  0  0  0  0  0
    8.2281   -0.4510   18.2609 H   0  0  0  0  0  0  0  0  0  0  0  0
    5.6081    1.1358   22.1209 H   0  0  0  0  0  0  0  0  0  0  0  0
    4.4443    0.1120   21.6072 H   0  0  0  0  0  0  0  0  0  0  0  0
    3.0308    2.2038   19.1428 H   0  0  0  0  0  0  0  0  0  0  0  0
    5.0089    1.6853   17.0275 H   0  0  0  0  0  0  0  0  0  0  0  0
    4.5255    2.9661   21.2888 H   0  0  0  0  0  0  0  0  0  0  0  0
    3.2176    2.0357   21.5901 H   0  0  0  0  0  0  0  0  0  0  0  0
  1  2  1  0  0  0  0
  2  3  2  0  0  0  0
  2  4  1  0  0  0  0
  3  5  1  0  0  0  0
  3  6  1  0  0  0  0
  4  7  2  0  0  0  0
  6  8  2  0  0  0  0
  7  9  1  0  0  0  0
  9 10  1  0  0  0  0
 10 11  1  0  0  0  0
 10 12  1  0  0  0  0
 11 13  2  0  0  0  0
 11 14  1  0  0  0  0
 12 15  1  0  0  0  0
 14 16  1  0  0  0  0
 16 17  1  0  0  0  0
 17 18  2  0  0  0  0
 17 19  1  0  0  0  0
 19 20  1  0  0  0  0
 20 21  2  0  0  0  0
 20 22  1  0  0  0  0
 21 23  1  0  0  0  0
 21 24  1  0  0  0  0
 22 25  2  0  0  0  0
 23 26  1  0  0  0  0
 23 27  2  0  0  0  0
 24 28  1  0  0  0  0
  7  8  1  0  0  0  0
 14 15  1  0  0  0  0
 25 27  1  0  0  0  0
 26 28  1  0  0  0  0
  4 29  1  0  0  0  0
  6 30  1  0  0  0  0
  8 31  1  0  0  0  0
  9 32  1  0  0  0  0
  9 33  1  0  0  0  0
 12 34  1  0  0  0  0
 12 35  1  0  0  0  0
 15 36  1  0  0  0  0
 15 37  1  0  0  0  0
 16 38  1  0  0  0  0
 16 39  1  0  0  0  0
 19 40  1  0  0  0  0
 22 41  1  0  0  0  0
 24 42  1  0  0  0  0
 24 43  1  0  0  0  0
 26 44  1  0  0  0  0
 27 45  1  0  0  0  0
 28 46  1  0  0  0  0
 28 47  1  0  0  0  0
M  END
> <BIOSOLVEIT.HYDE_ESTIMATED_AFFINITY_LOWER_BOUNDARY [nM]>
6943.757421

> <BIOSOLVEIT.HYDE_ESTIMATED_AFFINITY_UPPER_BOUNDARY [nM]>
689903.354533

> <BIOSOLVEIT.HYDE_LIGAND_EFFICIENCY range: ++, +, 0, -, -->
-

> <BIOSOLVEIT.HYDE_LIGAND_LIPOPHILIC_EFFICIENCY range: ++, +, 0, -, -->
--

> <BIOSOLVEIT.INTER_CLASH range: red, yellow, green>
green

> <BIOSOLVEIT.INTRA_CLASH range: red, yellow, green>
green

> <BIOSOLVEIT.LOGP>
3.2327

> <BIOSOLVEIT.MOLECULAR WEIGHT>
420.298

> <BIOSOLVEIT.MOLECULE_CHECKSUM>
LTIzLjc0NDI7MC44NDgwMDg=

> <BIOSOLVEIT.TORSION_QUALITY range: red, yellow, green, not rotatable>
red

> <BIOSOLVEIT.TPSA>
77.57

> <BIOSOLVEIT.SEESAR_FAVORITE>
favorite

> <smc_score>
0.875

> <QED_score>
0.779

> <distance>
0.522

> <SimilarityPheSA_1>
0.664

> <Smiles>
O=C(CN1CCN(Cc2ccc(Cl)c(Cl)c2)C1=O)Nc1cncc2c1CCN2

> <Similarity_SkelSpheres>
0.672

> <Cluster No>
165.0

> <QueryID>
PET-UNK-c9c1e0d8-3

> <SimilarityPheSA>
0.6641

> <Postera series>
3-aminopyridine-like

> <PDB_code>
Mpro-x12587

> <Approach>
DGM_focussed_RL

> <ID>
20210618_329

> <SimilarityPheSA_2>
0.672

> <OPTIBRIUM.logD>
2.24858

> <OPTIBRIUM.BBB category>
-

> <OPTIBRIUM.logP>
2.16387

> <OPTIBRIUM.P-gp category>
yes

> <OPTIBRIUM.logS>
2.07129

> <OPTIBRIUM.HIA category>
+

> <OPTIBRIUM.PPB90 category>
high

> <OPTIBRIUM.2D6 affinity category>
medium

> <OPTIBRIUM.hERG pIC50>
4.78816

> <OPTIBRIUM.2C9 pKi>
5.63938

> <OPTIBRIUM.BBB log([brain]:[blood])>
-0.305901

> <OPTIBRIUM.logS @ pH7.4>
1.5639

$$$$
Compound 723_1_10
haSeeSAR  07122111353D 1   1.00000     0.00000     0
SeeSAR 11.0.2 hazemaj
 36 39  0  0  0  0            999 V2000
    6.5490    1.4846   23.7475 Cl  0  0  0  0  0  0  0  0  0  0  0  0
    7.3643    0.0530   24.4196 C   0  0  0  0  0  0  0  0  0  0  0  0
    8.2953   -0.6821   23.6907 C   0  0  0  0  0  0  0  0  0  0  0  0
    7.0323   -0.2920   25.7242 C   0  0  0  0  0  0  0  0  0  0  0  0
    8.8038   -0.5713   22.3966 N   0  0  0  0  0  0  0  0  0  0  0  0
    8.8617   -1.7813   24.3074 C   0  0  0  0  0  0  0  0  0  0  0  0
    7.6329   -1.3927   26.3256 C   0  0  0  0  0  0  0  0  0  0  0  0
    8.2355    0.0945   21.2963 C   0  0  0  0  0  0  0  0  0  0  0  0
   10.0633   -1.3121   22.3325 C   0  0  0  0  0  0  0  0  0  0  0  0
    8.5618   -2.1478   25.6167 C   0  0  0  0  0  0  0  0  0  0  0  0
    9.7834   -2.4340   23.3098 C   0  0  0  0  0  0  0  0  0  0  0  0
    8.8082    1.0223   20.7951 O   0  0  0  0  0  0  0  0  0  0  0  0
    7.0277   -0.3159   20.7965 N   0  0  0  0  0  0  0  0  0  0  0  0
    9.3430   -3.5589   26.3683 Cl  0  0  0  0  0  0  0  0  0  0  0  0
    6.4612    0.3478   19.7000 C   0  0  0  0  0  0  0  0  0  0  0  0
    5.2898    1.0867   19.8816 C   0  0  0  0  0  0  0  0  0  0  0  0
    7.0330    0.2647   18.4342 C   0  0  0  0  0  0  0  0  0  0  0  0
    4.7553    1.7472   18.8061 C   0  0  0  0  0  0  0  0  0  0  0  0
    4.4022    1.3841   21.0805 C   0  0  0  0  0  0  0  0  0  0  0  0
    6.4626    0.9054   17.4012 N   0  0  0  0  0  0  0  0  0  0  0  0
    3.5826    2.4858   19.2204 C   0  0  0  0  0  0  0  0  0  0  0  0
    5.3516    1.6406   17.5534 C   0  0  0  0  0  0  0  0  0  0  0  0
    3.3636    2.2890   20.5814 N   0  0  0  0  0  0  0  0  0  0  0  0
    2.8692    3.1728   18.5050 O   0  0  0  0  0  0  0  0  0  0  0  0
    6.3619    0.2508   26.2301 H   0  0  0  0  0  0  0  0  0  0  0  0
    7.3977   -1.6407   27.2654 H   0  0  0  0  0  0  0  0  0  0  0  0
   10.8359   -0.7505   22.6284 H   0  0  0  0  0  0  0  0  0  0  0  0
   10.2384   -1.6613   21.4119 H   0  0  0  0  0  0  0  0  0  0  0  0
    9.3361   -3.2046   22.8558 H   0  0  0  0  0  0  0  0  0  0  0  0
   10.6252   -2.7485   23.7485 H   0  0  0  0  0  0  0  0  0  0  0  0
    6.5505   -1.0890   21.2142 H   0  0  0  0  0  0  0  0  0  0  0  0
    7.8661   -0.2704   18.2943 H   0  0  0  0  0  0  0  0  0  0  0  0
    4.9306    1.8246   21.8063 H   0  0  0  0  0  0  0  0  0  0  0  0
    3.9931    0.5414   21.4305 H   0  0  0  0  0  0  0  0  0  0  0  0
    4.9519    2.1119   16.7672 H   0  0  0  0  0  0  0  0  0  0  0  0
    2.6271    2.6941   21.1229 H   0  0  0  0  0  0  0  0  0  0  0  0
  1  2  1  0  0  0  0
  2  3  2  0  0  0  0
  2  4  1  0  0  0  0
  3  5  1  0  0  0  0
  3  6  1  0  0  0  0
  4  7  2  0  0  0  0
  5  8  1  0  0  0  0
  5  9  1  0  0  0  0
  6 10  2  0  0  0  0
  6 11  1  0  0  0  0
  8 12  2  0  0  0  0
  8 13  1  0  0  0  0
 10 14  1  0  0  0  0
 13 15  1  0  0  0  0
 15 16  2  0  0  0  0
 15 17  1  0  0  0  0
 16 18  1  0  0  0  0
 16 19  1  0  0  0  0
 17 20  2  0  0  0  0
 18 21  1  0  0  0  0
 18 22  2  0  0  0  0
 19 23  1  0  0  0  0
 21 24  2  0  0  0  0
  7 10  1  0  0  0  0
  9 11  1  0  0  0  0
 20 22  1  0  0  0  0
 21 23  1  0  0  0  0
  4 25  1  0  0  0  0
  7 26  1  0  0  0  0
  9 27  1  0  0  0  0
  9 28  1  0  0  0  0
 11 29  1  0  0  0  0
 11 30  1  0  0  0  0
 13 31  1  0  0  0  0
 17 32  1  0  0  0  0
 19 33  1  0  0  0  0
 19 34  1  0  0  0  0
 22 35  1  0  0  0  0
 23 36  1  0  0  0  0
M  END
> <BIOSOLVEIT.HYDE_ESTIMATED_AFFINITY_LOWER_BOUNDARY [nM]>
7144.297808

> <BIOSOLVEIT.HYDE_ESTIMATED_AFFINITY_UPPER_BOUNDARY [nM]>
709828.227672

> <BIOSOLVEIT.HYDE_LIGAND_EFFICIENCY range: ++, +, 0, -, -->
-

> <BIOSOLVEIT.HYDE_LIGAND_LIPOPHILIC_EFFICIENCY range: ++, +, 0, -, -->
--

> <BIOSOLVEIT.INTER_CLASH range: red, yellow, green>
green

> <BIOSOLVEIT.INTRA_CLASH range: red, yellow, green>
green

> <BIOSOLVEIT.LOGP>
3.2264

> <BIOSOLVEIT.MOLECULAR WEIGHT>
363.203

> <BIOSOLVEIT.MOLECULE_CHECKSUM>
LTIzLjY3MzY7MC45ODY0MDI=

> <BIOSOLVEIT.TORSION_QUALITY range: red, yellow, green, not rotatable>
yellow

> <BIOSOLVEIT.TPSA>
74.33

> <BIOSOLVEIT.SEESAR_FAVORITE>
favorite

> <smc_score>
0.75

> <QED_score>
0.817

> <distance>
0.685

> <SimilarityPheSA_1>
0.671

> <Smiles>
O=C1NCc2c(NC(=O)N3CCc4c(Cl)ccc(Cl)c43)cncc21

> <Similarity_SkelSpheres>
0.633

> <Cluster No>
412.0

> <QueryID>
ALP-POS-ce760d3f-2

> <SimilarityPheSA>
0.6708

> <Postera series>
3-aminopyridine-like

> <PDB_code>
Mpro-x12659

> <Approach>
DGM_focussed_RL

> <ID>
20210618_722

> <SimilarityPheSA_2>
0.761

> <OPTIBRIUM.logD>
2.25628

> <OPTIBRIUM.BBB category>
-

> <OPTIBRIUM.logP>
2.25628

> <OPTIBRIUM.P-gp category>
no

> <OPTIBRIUM.logS>
1.27111

> <OPTIBRIUM.HIA category>
+

> <OPTIBRIUM.PPB90 category>
high

> <OPTIBRIUM.2D6 affinity category>
medium

> <OPTIBRIUM.hERG pIC50>
4.67445

> <OPTIBRIUM.2C9 pKi>
5.60181

> <OPTIBRIUM.BBB log([brain]:[blood])>
0.329193

> <OPTIBRIUM.logS @ pH7.4>
1.27111

$$$$
Compound 577_1_05
haSeeSAR  07122111353D 1   1.00000     0.00000     0
SeeSAR 11.0.2 hazemaj
 40 43  0  0  0  0            999 V2000
    8.1752    0.8743   28.9407 Cl  0  0  0  0  0  0  0  0  0  0  0  0
    8.7013    0.5193   27.2782 C   0  0  0  0  0  0  0  0  0  0  0  0
    7.7577    0.3533   26.2712 C   0  0  0  0  0  0  0  0  0  0  0  0
   10.0592    0.4089   26.9986 C   0  0  0  0  0  0  0  0  0  0  0  0
    6.0251    0.4982   26.6522 Cl  0  0  0  0  0  0  0  0  0  0  0  0
    8.1525    0.0739   24.9674 C   0  0  0  0  0  0  0  0  0  0  0  0
   10.4557    0.1301   25.6950 C   0  0  0  0  0  0  0  0  0  0  0  0
    9.5104   -0.0362   24.6893 C   0  0  0  0  0  0  0  0  0  0  0  0
   11.7500    0.0238   25.4144 F   0  0  0  0  0  0  0  0  0  0  0  0
    9.9622   -0.3419   23.2701 C   0  0  0  0  0  0  0  0  0  0  0  0
    8.7838   -0.5370   22.4117 N   0  0  0  0  0  0  0  0  0  0  0  0
    8.3862    0.2915   21.3660 C   0  0  0  0  0  0  0  0  0  0  0  0
    7.8325   -1.6347   22.5829 C   0  0  0  0  0  0  0  0  0  0  0  0
    8.9591    1.3172   21.0471 O   0  0  0  0  0  0  0  0  0  0  0  0
    7.2490   -0.2463   20.7526 N   0  0  0  0  0  0  0  0  0  0  0  0
    6.9173   -1.5339   21.3754 C   0  0  0  0  0  0  0  0  0  0  0  0
    6.5426    0.3454   19.7012 C   0  0  0  0  0  0  0  0  0  0  0  0
    5.3696    1.0377   19.9831 C   0  0  0  0  0  0  0  0  0  0  0  0
    7.0147    0.2333   18.3969 C   0  0  0  0  0  0  0  0  0  0  0  0
    4.7024    1.2809   21.1502 N   0  0  0  0  0  0  0  0  0  0  0  0
    4.6821    1.6200   18.9435 C   0  0  0  0  0  0  0  0  0  0  0  0
    6.3239    0.8057   17.4008 N   0  0  0  0  0  0  0  0  0  0  0  0
    3.6280    1.9883   20.8805 C   0  0  0  0  0  0  0  0  0  0  0  0
    3.5996    2.2053   19.5332 N   0  0  0  0  0  0  0  0  0  0  0  0
    5.1910    1.4816   17.6539 C   0  0  0  0  0  0  0  0  0  0  0  0
    2.5509    2.9559   18.8275 C   0  0  0  0  0  0  0  0  0  0  0  0
   10.7389    0.5278   27.7224 H   0  0  0  0  0  0  0  0  0  0  0  0
    7.4728   -0.0455   24.2437 H   0  0  0  0  0  0  0  0  0  0  0  0
   10.5169   -1.1740   23.2689 H   0  0  0  0  0  0  0  0  0  0  0  0
   10.5058    0.4216   22.9215 H   0  0  0  0  0  0  0  0  0  0  0  0
    7.3133   -1.5240   23.4303 H   0  0  0  0  0  0  0  0  0  0  0  0
    8.3066   -2.5150   22.5949 H   0  0  0  0  0  0  0  0  0  0  0  0
    5.9585   -1.5504   21.6589 H   0  0  0  0  0  0  0  0  0  0  0  0
    7.0901   -2.2864   20.7398 H   0  0  0  0  0  0  0  0  0  0  0  0
    7.8584   -0.2680   18.2052 H   0  0  0  0  0  0  0  0  0  0  0  0
    2.9523    2.3102   21.5437 H   0  0  0  0  0  0  0  0  0  0  0  0
    4.6966    1.8993   16.8916 H   0  0  0  0  0  0  0  0  0  0  0  0
    1.8727    3.2809   19.4866 H   0  0  0  0  0  0  0  0  0  0  0  0
    2.9599    3.7379   18.3571 H   0  0  0  0  0  0  0  0  0  0  0  0
    2.1068    2.3597   18.1587 H   0  0  0  0  0  0  0  0  0  0  0  0
  1  2  1  0  0  0  0
  2  3  2  0  0  0  0
  2  4  1  0  0  0  0
  3  5  1  0  0  0  0
  3  6  1  0  0  0  0
  4  7  2  0  0  0  0
  6  8  2  0  0  0  0
  7  9  1  0  0  0  0
  8 10  1  0  0  0  0
 10 11  1  0  0  0  0
 11 12  1  0  0  0  0
 11 13  1  0  0  0  0
 12 14  2  0  0  0  0
 12 15  1  0  0  0  0
 13 16  1  0  0  0  0
 15 17  1  0  0  0  0
 17 18  2  0  0  0  0
 17 19  1  0  0  0  0
 18 20  1  0  0  0  0
 18 21  1  0  0  0  0
 19 22  2  0  0  0  0
 20 23  2  0  0  0  0
 21 24  1  0  0  0  0
 21 25  2  0  0  0  0
 24 26  1  0  0  0  0
  7  8  1  0  0  0  0
 15 16  1  0  0  0  0
 22 25  1  0  0  0  0
 23 24  1  0  0  0  0
  4 27  1  0  0  0  0
  6 28  1  0  0  0  0
 10 29  1  0  0  0  0
 10 30  1  0  0  0  0
 13 31  1  0  0  0  0
 13 32  1  0  0  0  0
 16 33  1  0  0  0  0
 16 34  1  0  0  0  0
 19 35  1  0  0  0  0
 23 36  1  0  0  0  0
 25 37  1  0  0  0  0
 26 38  1  0  0  0  0
 26 39  1  0  0  0  0
 26 40  1  0  0  0  0
M  END
> <BIOSOLVEIT.HYDE_ESTIMATED_AFFINITY_LOWER_BOUNDARY [nM]>
7448.773316

> <BIOSOLVEIT.HYDE_ESTIMATED_AFFINITY_UPPER_BOUNDARY [nM]>
740079.669559

> <BIOSOLVEIT.HYDE_LIGAND_EFFICIENCY range: ++, +, 0, -, -->
-

> <BIOSOLVEIT.HYDE_LIGAND_LIPOPHILIC_EFFICIENCY range: ++, +, 0, -, -->
--

> <BIOSOLVEIT.INTER_CLASH range: red, yellow, green>
green

> <BIOSOLVEIT.INTRA_CLASH range: red, yellow, green>
yellow

> <BIOSOLVEIT.LOGP>
3.8564

> <BIOSOLVEIT.MOLECULAR WEIGHT>
394.236

> <BIOSOLVEIT.MOLECULE_CHECKSUM>
LTIzLjU3MDI7MC45MDY1NDY=

> <BIOSOLVEIT.TORSION_QUALITY range: red, yellow, green, not rotatable>
green

> <BIOSOLVEIT.TPSA>
54.26

> <BIOSOLVEIT.SEESAR_FAVORITE>
favorite

> <smc_score>
0.938

> <QED_score>
0.634

> <distance>
0.688

> <SimilarityPheSA_1>
0.663

> <Smiles>
Cn1cnc2c(N3CCN(Cc4cc(Cl)c(Cl)cc4F)C3=O)cncc21

> <Similarity_SkelSpheres>
0.665

> <Cluster No>
309.0

> <QueryID>
MAT-POS-f7918075-5

> <SimilarityPheSA>
0.6625

> <Postera series>
3-aminopyridine-like

> <PDB_code>
Mpro-x11499

> <Approach>
DGM_focussed_RL

> <ID>
20210618_576

> <SimilarityPheSA_2>
0.827

> <OPTIBRIUM.logD>
3.22751

> <OPTIBRIUM.BBB category>
-

> <OPTIBRIUM.logP>
3.22751

> <OPTIBRIUM.P-gp category>
no

> <OPTIBRIUM.logS>
0.531667

> <OPTIBRIUM.HIA category>
+

> <OPTIBRIUM.PPB90 category>
high

> <OPTIBRIUM.2D6 affinity category>
medium

> <OPTIBRIUM.hERG pIC50>
5.93338

> <OPTIBRIUM.2C9 pKi>
5.66834

> <OPTIBRIUM.BBB log([brain]:[blood])>
-0.214779

> <OPTIBRIUM.logS @ pH7.4>
0.531667

$$$$
Compound 555_1_05
haSeeSAR  07122111353D 1   1.00000     0.00000     0
SeeSAR 11.0.2 hazemaj
 53 57  0  0  0  0            999 V2000
    5.1086    4.8961   25.8354 Cl  0  0  0  0  0  0  0  0  0  0  0  0
    6.2034    3.6337   26.4446 C   0  0  0  0  0  0  0  0  0  0  0  0
    6.3296    3.4314   27.8110 C   0  0  0  0  0  0  0  0  0  0  0  0
    6.9365    2.8551   25.5593 C   0  0  0  0  0  0  0  0  0  0  0  0
    5.4003    4.4306   28.9515 Cl  0  0  0  0  0  0  0  0  0  0  0  0
    7.1686    2.4529   28.3244 C   0  0  0  0  0  0  0  0  0  0  0  0
    7.7845    1.8828   26.0805 C   0  0  0  0  0  0  0  0  0  0  0  0
    7.9015    1.6584   27.4523 C   0  0  0  0  0  0  0  0  0  0  0  0
    8.6007    1.0706   25.0897 C   0  0  0  0  0  0  0  0  0  0  0  0
    8.7939    0.5605   28.0103 C   0  0  0  0  0  0  0  0  0  0  0  0
    9.0962   -0.2239   25.7122 C   0  0  2  0  0  0  0  0  0  0  0  0
    9.8351    0.1316   26.9896 C   0  0  0  0  0  0  0  0  0  0  0  0
   10.0348   -0.8887   24.7174 C   0  0  0  0  0  0  0  0  0  0  0  0
   10.1051   -0.0524   23.4501 C   0  0  0  0  0  0  0  0  0  0  0  0
    8.9252   -0.3230   22.6190 N   0  0  0  0  0  0  0  0  0  0  0  0
    8.5185    0.4196   21.5128 C   0  0  0  0  0  0  0  0  0  0  0  0
    7.9710   -1.4137   22.8703 C   0  0  0  0  0  0  0  0  0  0  0  0
    9.0650    1.4408   21.1068 O   0  0  0  0  0  0  0  0  0  0  0  0
    7.4014   -0.1779   20.9398 N   0  0  0  0  0  0  0  0  0  0  0  0
    7.0911   -1.4297   21.6326 C   0  0  0  0  0  0  0  0  0  0  0  0
    6.6898    0.3265   19.8430 C   0  0  0  0  0  0  0  0  0  0  0  0
    5.5017    1.0408   19.9813 C   0  0  0  0  0  0  0  0  0  0  0  0
    7.1941    0.1023   18.5665 C   0  0  0  0  0  0  0  0  0  0  0  0
    4.8430    1.5148   18.8512 C   0  0  0  0  0  0  0  0  0  0  0  0
    4.9433    1.2988   21.2308 C   0  0  0  0  0  0  0  0  0  0  0  0
    6.5454    0.5673   17.4882 N   0  0  0  0  0  0  0  0  0  0  0  0
    5.4002    1.2564   17.6032 C   0  0  0  0  0  0  0  0  0  0  0  0
    3.6546    2.2300   18.9596 C   0  0  0  0  0  0  0  0  0  0  0  0
    3.7569    2.0116   21.3677 C   0  0  0  0  0  0  0  0  0  0  0  0
    3.1201    2.4727   20.2204 C   0  0  0  0  0  0  0  0  0  0  0  0
    6.8571    2.9897   24.5716 H   0  0  0  0  0  0  0  0  0  0  0  0
    7.2449    2.3210   29.3128 H   0  0  0  0  0  0  0  0  0  0  0  0
    9.3878    1.6123   24.7946 H   0  0  0  0  0  0  0  0  0  0  0  0
    8.0297    0.8536   24.2980 H   0  0  0  0  0  0  0  0  0  0  0  0
    8.2291   -0.2283   28.2523 H   0  0  0  0  0  0  0  0  0  0  0  0
    9.2586    0.9011   28.8278 H   0  0  0  0  0  0  0  0  0  0  0  0
    8.3249   -0.8268   25.9155 H   0  0  0  0  0  0  0  0  0  0  0  0
   10.3373   -0.6645   27.3271 H   0  0  0  0  0  0  0  0  0  0  0  0
   10.4747    0.8809   26.8177 H   0  0  0  0  0  0  0  0  0  0  0  0
    9.6929   -1.8019   24.4956 H   0  0  0  0  0  0  0  0  0  0  0  0
   10.9477   -0.9630   25.1188 H   0  0  0  0  0  0  0  0  0  0  0  0
   10.9328   -0.2880   22.9407 H   0  0  0  0  0  0  0  0  0  0  0  0
   10.1272    0.9177   23.6917 H   0  0  0  0  0  0  0  0  0  0  0  0
    7.4281   -1.2283   23.6894 H   0  0  0  0  0  0  0  0  0  0  0  0
    8.4488   -2.2855   22.9774 H   0  0  0  0  0  0  0  0  0  0  0  0
    6.1246   -1.4614   21.8875 H   0  0  0  0  0  0  0  0  0  0  0  0
    7.3094   -2.2162   21.0549 H   0  0  0  0  0  0  0  0  0  0  0  0
    8.0457   -0.4090   18.4515 H   0  0  0  0  0  0  0  0  0  0  0  0
    5.4072    0.9631   22.0506 H   0  0  0  0  0  0  0  0  0  0  0  0
    4.9405    1.5891   16.7798 H   0  0  0  0  0  0  0  0  0  0  0  0
    3.1900    2.5657   18.1402 H   0  0  0  0  0  0  0  0  0  0  0  0
    3.3697    2.1889   22.2726 H   0  0  0  0  0  0  0  0  0  0  0  0
    2.2659    2.9861   20.3032 H   0  0  0  0  0  0  0  0  0  0  0  0
  1  2  1  0  0  0  0
  2  3  2  0  0  0  0
  2  4  1  0  0  0  0
  3  5  1  0  0  0  0
  3  6  1  0  0  0  0
  4  7  2  0  0  0  0
  6  8  2  0  0  0  0
  7  9  1  0  0  0  0
  8 10  1  0  0  0  0
  9 11  1  0  0  0  0
 10 12  1  0  0  0  0
 11 13  1  0  0  0  0
 13 14  1  0  0  0  0
 14 15  1  0  0  0  0
 15 16  1  0  0  0  0
 15 17  1  0  0  0  0
 16 18  2  0  0  0  0
 16 19  1  0  0  0  0
 17 20  1  0  0  0  0
 19 21  1  0  0  0  0
 21 22  1  0  0  0  0
 21 23  2  0  0  0  0
 22 24  1  0  0  0  0
 22 25  2  0  0  0  0
 23 26  1  0  0  0  0
 24 27  1  0  0  0  0
 24 28  2  0  0  0  0
 25 29  1  0  0  0  0
 28 30  1  0  0  0  0
  7  8  1  0  0  0  0
 11 12  1  0  0  0  0
 19 20  1  0  0  0  0
 26 27  2  0  0  0  0
 29 30  2  0  0  0  0
  4 31  1  0  0  0  0
  6 32  1  0  0  0  0
  9 33  1  0  0  0  0
  9 34  1  0  0  0  0
 10 35  1  0  0  0  0
 10 36  1  0  0  0  0
 11 37  1  0  0  0  0
 12 38  1  0  0  0  0
 12 39  1  0  0  0  0
 13 40  1  0  0  0  0
 13 41  1  0  0  0  0
 14 42  1  0  0  0  0
 14 43  1  0  0  0  0
 17 44  1  0  0  0  0
 17 45  1  0  0  0  0
 20 46  1  0  0  0  0
 20 47  1  0  0  0  0
 23 48  1  0  0  0  0
 25 49  1  0  0  0  0
 27 50  1  0  0  0  0
 28 51  1  0  0  0  0
 29 52  1  0  0  0  0
 30 53  1  0  0  0  0
M  END
> <BIOSOLVEIT.HYDE_ESTIMATED_AFFINITY_LOWER_BOUNDARY [nM]>
7481.915797

> <BIOSOLVEIT.HYDE_ESTIMATED_AFFINITY_UPPER_BOUNDARY [nM]>
743372.571039

> <BIOSOLVEIT.HYDE_LIGAND_EFFICIENCY range: ++, +, 0, -, -->
--

> <BIOSOLVEIT.HYDE_LIGAND_LIPOPHILIC_EFFICIENCY range: ++, +, 0, -, -->
--

> <BIOSOLVEIT.INTER_CLASH range: red, yellow, green>
green

> <BIOSOLVEIT.INTRA_CLASH range: red, yellow, green>
yellow

> <BIOSOLVEIT.LOGP>
5.9788

> <BIOSOLVEIT.MOLECULAR WEIGHT>
440.372

> <BIOSOLVEIT.MOLECULE_CHECKSUM>
LTIzLjU1OTI7MC43ODUzMDY=

> <BIOSOLVEIT.TORSION_QUALITY range: red, yellow, green, not rotatable>
red

> <BIOSOLVEIT.TPSA>
36.44

> <BIOSOLVEIT.SEESAR_FAVORITE>
favorite

> <smc_score>
0.688

> <QED_score>
0.501

> <distance>
0.529

> <SimilarityPheSA_1>
0.686

> <Smiles>
O=C1N(CCC2CCc3cc(Cl)c(Cl)cc3C2)CCN1c1cncc2ccccc12

> <Similarity_SkelSpheres>
0.763

> <Cluster No>
297.0

> <QueryID>
PET-UNK-c9c1e0d8-3

> <SimilarityPheSA>
0.6862

> <Postera series>
3-aminopyridine-like

> <PDB_code>
Mpro-x12587

> <Approach>
DGM_focussed_RL

> <ID>
20210618_554

> <SimilarityPheSA_2>
0.798

> <OPTIBRIUM.logD>
5.63807

> <OPTIBRIUM.BBB category>
+

> <OPTIBRIUM.logP>
5.63807

> <OPTIBRIUM.P-gp category>
yes

> <OPTIBRIUM.logS>
-0.611183

> <OPTIBRIUM.HIA category>
+

> <OPTIBRIUM.PPB90 category>
high

> <OPTIBRIUM.2D6 affinity category>
medium

> <OPTIBRIUM.hERG pIC50>
6.18332

> <OPTIBRIUM.2C9 pKi>
5.70681

> <OPTIBRIUM.BBB log([brain]:[blood])>
0.0866107

> <OPTIBRIUM.logS @ pH7.4>
-0.611183

$$$$
Compound 723_1_04
haSeeSAR  07122111353D 1   1.00000     0.00000     0
SeeSAR 11.0.2 hazemaj
 36 39  0  0  0  0            999 V2000
    7.2904    2.7345   23.6614 Cl  0  0  0  0  0  0  0  0  0  0  0  0
    7.8127    1.3236   24.6114 C   0  0  0  0  0  0  0  0  0  0  0  0
    8.4117    0.2127   24.0233 C   0  0  0  0  0  0  0  0  0  0  0  0
    7.6028    1.3899   25.9835 C   0  0  0  0  0  0  0  0  0  0  0  0
    8.7336   -0.1191   22.7072 N   0  0  0  0  0  0  0  0  0  0  0  0
    8.7706   -0.8312   24.8545 C   0  0  0  0  0  0  0  0  0  0  0  0
    7.9918    0.3317   26.7975 C   0  0  0  0  0  0  0  0  0  0  0  0
    8.1927    0.4115   21.5229 C   0  0  0  0  0  0  0  0  0  0  0  0
    9.7440   -1.1760   22.7336 C   0  0  0  0  0  0  0  0  0  0  0  0
    8.5866   -0.7928   26.2340 C   0  0  0  0  0  0  0  0  0  0  0  0
    9.3412   -1.9234   23.9872 C   0  0  0  0  0  0  0  0  0  0  0  0
    8.7650    1.2932   20.9441 O   0  0  0  0  0  0  0  0  0  0  0  0
    7.0122   -0.0783   21.0295 N   0  0  0  0  0  0  0  0  0  0  0  0
    9.0932   -2.1570   27.2579 Cl  0  0  0  0  0  0  0  0  0  0  0  0
    6.4731    0.4503   19.8489 C   0  0  0  0  0  0  0  0  0  0  0  0
    5.3202    1.2362   19.9184 C   0  0  0  0  0  0  0  0  0  0  0  0
    7.0533    0.1881   18.6118 C   0  0  0  0  0  0  0  0  0  0  0  0
    4.8130    1.7637   18.7596 C   0  0  0  0  0  0  0  0  0  0  0  0
    4.4307    1.7102   21.0576 C   0  0  0  0  0  0  0  0  0  0  0  0
    6.5092    0.7025   17.4973 N   0  0  0  0  0  0  0  0  0  0  0  0
    3.6569    2.5796   19.0597 C   0  0  0  0  0  0  0  0  0  0  0  0
    5.4170    1.4791   17.5387 C   0  0  0  0  0  0  0  0  0  0  0  0
    3.4210    2.5681   20.4321 N   0  0  0  0  0  0  0  0  0  0  0  0
    2.9683    3.1852   18.2524 O   0  0  0  0  0  0  0  0  0  0  0  0
    7.1721    2.1980   26.3852 H   0  0  0  0  0  0  0  0  0  0  0  0
    7.8445    0.3789   27.7855 H   0  0  0  0  0  0  0  0  0  0  0  0
   10.6676   -0.8003   22.8101 H   0  0  0  0  0  0  0  0  0  0  0  0
    9.6876   -1.7594   21.9234 H   0  0  0  0  0  0  0  0  0  0  0  0
    8.6533   -2.6207   23.7859 H   0  0  0  0  0  0  0  0  0  0  0  0
   10.1333   -2.3521   24.4217 H   0  0  0  0  0  0  0  0  0  0  0  0
    6.5352   -0.8132   21.5117 H   0  0  0  0  0  0  0  0  0  0  0  0
    7.8731   -0.3817   18.5529 H   0  0  0  0  0  0  0  0  0  0  0  0
    4.9644    2.2282   21.7260 H   0  0  0  0  0  0  0  0  0  0  0  0
    3.9962    0.9311   21.5095 H   0  0  0  0  0  0  0  0  0  0  0  0
    5.0369    1.8537   16.6931 H   0  0  0  0  0  0  0  0  0  0  0  0
    3.1649    3.1138   17.2745 H   0  0  0  0  0  0  0  0  0  0  0  0
  1  2  1  0  0  0  0
  2  3  2  0  0  0  0
  2  4  1  0  0  0  0
  3  5  1  0  0  0  0
  3  6  1  0  0  0  0
  4  7  2  0  0  0  0
  5  8  1  0  0  0  0
  5  9  1  0  0  0  0
  6 10  2  0  0  0  0
  6 11  1  0  0  0  0
  8 12  2  0  0  0  0
  8 13  1  0  0  0  0
 10 14  1  0  0  0  0
 13 15  1  0  0  0  0
 15 16  2  0  0  0  0
 15 17  1  0  0  0  0
 16 18  1  0  0  0  0
 16 19  1  0  0  0  0
 17 20  2  0  0  0  0
 18 21  1  0  0  0  0
 18 22  2  0  0  0  0
 19 23  1  0  0  0  0
 21 24  1  0  0  0  0
  7 10  1  0  0  0  0
  9 11  1  0  0  0  0
 20 22  1  0  0  0  0
 21 23  2  0  0  0  0
  4 25  1  0  0  0  0
  7 26  1  0  0  0  0
  9 27  1  0  0  0  0
  9 28  1  0  0  0  0
 11 29  1  0  0  0  0
 11 30  1  0  0  0  0
 13 31  1  0  0  0  0
 17 32  1  0  0  0  0
 19 33  1  0  0  0  0
 19 34  1  0  0  0  0
 22 35  1  0  0  0  0
 24 36  1  0  0  0  0
M  END
> <BIOSOLVEIT.HYDE_ESTIMATED_AFFINITY_LOWER_BOUNDARY [nM]>
7515.575632

> <BIOSOLVEIT.HYDE_ESTIMATED_AFFINITY_UPPER_BOUNDARY [nM]>
746716.874649

> <BIOSOLVEIT.HYDE_LIGAND_EFFICIENCY range: ++, +, 0, -, -->
-

> <BIOSOLVEIT.HYDE_LIGAND_LIPOPHILIC_EFFICIENCY range: ++, +, 0, -, -->
--

> <BIOSOLVEIT.INTER_CLASH range: red, yellow, green>
green

> <BIOSOLVEIT.INTRA_CLASH range: red, yellow, green>
green

> <BIOSOLVEIT.LOGP>
3.8012

> <BIOSOLVEIT.MOLECULAR WEIGHT>
363.203

> <BIOSOLVEIT.MOLECULE_CHECKSUM>
LTIzLjU0ODE7MC45ODExNjk=

> <BIOSOLVEIT.TORSION_QUALITY range: red, yellow, green, not rotatable>
yellow

> <BIOSOLVEIT.TPSA>
77.82

> <BIOSOLVEIT.SEESAR_FAVORITE>
favorite

> <smc_score>
0.75

> <QED_score>
0.817

> <distance>
0.685

> <SimilarityPheSA_1>
0.671

> <Smiles>
O=C1NCc2c(NC(=O)N3CCc4c(Cl)ccc(Cl)c43)cncc21

> <Similarity_SkelSpheres>
0.633

> <Cluster No>
412.0

> <QueryID>
ALP-POS-ce760d3f-2

> <SimilarityPheSA>
0.6708

> <Postera series>
3-aminopyridine-like

> <PDB_code>
Mpro-x12659

> <Approach>
DGM_focussed_RL

> <ID>
20210618_722

> <SimilarityPheSA_2>
0.761

> <OPTIBRIUM.logD>
2.25628

> <OPTIBRIUM.BBB category>
-

> <OPTIBRIUM.logP>
2.25628

> <OPTIBRIUM.P-gp category>
no

> <OPTIBRIUM.logS>
1.27111

> <OPTIBRIUM.HIA category>
+

> <OPTIBRIUM.PPB90 category>
high

> <OPTIBRIUM.2D6 affinity category>
medium

> <OPTIBRIUM.hERG pIC50>
4.67445

> <OPTIBRIUM.2C9 pKi>
5.60181

> <OPTIBRIUM.BBB log([brain]:[blood])>
0.329193

> <OPTIBRIUM.logS @ pH7.4>
1.27111

$$$$
Compound 715_1_01
haSeeSAR  07122111353D 1   1.00000     0.00000     0
SeeSAR 11.0.2 hazemaj
 40 43  0  0  0  0            999 V2000
    9.7424   -3.1912   24.3884 Cl  0  0  0  0  0  0  0  0  0  0  0  0
    9.3395   -1.7986   25.4215 C   0  0  0  0  0  0  0  0  0  0  0  0
    9.3620   -0.5065   24.9071 C   0  0  0  0  0  0  0  0  0  0  0  0
    9.0020   -2.0221   26.7524 C   0  0  0  0  0  0  0  0  0  0  0  0
    9.0447    0.5727   25.7252 C   0  0  0  0  0  0  0  0  0  0  0  0
    9.7324   -0.2739   23.4510 C   0  0  0  0  0  0  0  0  0  0  0  0
    8.6855   -0.9387   27.5656 C   0  0  0  0  0  0  0  0  0  0  0  0
    8.7060    0.3552   27.0564 C   0  0  0  0  0  0  0  0  0  0  0  0
    8.5307   -0.3925   22.6154 N   0  0  0  0  0  0  0  0  0  0  0  0
    8.2559    0.3529   21.4710 C   0  0  0  0  0  0  0  0  0  0  0  0
    7.4134   -1.3050   22.9011 C   0  0  0  0  0  0  0  0  0  0  0  0
    8.9609    1.2546   21.0278 O   0  0  0  0  0  0  0  0  0  0  0  0
    7.0623   -0.0859   20.9087 N   0  0  0  0  0  0  0  0  0  0  0  0
    6.5515   -1.2390   21.6523 C   0  0  0  0  0  0  0  0  0  0  0  0
    6.4484    0.4732   19.7802 C   0  0  0  0  0  0  0  0  0  0  0  0
    5.2802    1.2273   19.8548 C   0  0  0  0  0  0  0  0  0  0  0  0
    7.0313    0.2638   18.5352 C   0  0  0  0  0  0  0  0  0  0  0  0
    4.7206    1.7563   18.6958 C   0  0  0  0  0  0  0  0  0  0  0  0
    4.6404    1.4773   21.0667 C   0  0  0  0  0  0  0  0  0  0  0  0
    6.4775    0.7802   17.4282 N   0  0  0  0  0  0  0  0  0  0  0  0
    5.3534    1.5100   17.4819 C   0  0  0  0  0  0  0  0  0  0  0  0
    3.5547    2.5146   18.7313 C   0  0  0  0  0  0  0  0  0  0  0  0
    3.4765    2.2320   21.1227 C   0  0  0  0  0  0  0  0  0  0  0  0
    2.9322    2.7513   19.9531 C   0  0  0  0  0  0  0  0  0  0  0  0
    2.7031    2.5201   22.7000 Cl  0  0  0  0  0  0  0  0  0  0  0  0
    8.9871   -2.9517   27.1207 H   0  0  0  0  0  0  0  0  0  0  0  0
    9.0601    1.5024   25.3572 H   0  0  0  0  0  0  0  0  0  0  0  0
   10.4057   -0.9559   23.1653 H   0  0  0  0  0  0  0  0  0  0  0  0
   10.1211    0.6417   23.3481 H   0  0  0  0  0  0  0  0  0  0  0  0
    8.4417   -1.0914   28.5233 H   0  0  0  0  0  0  0  0  0  0  0  0
    8.4771    1.1288   27.6471 H   0  0  0  0  0  0  0  0  0  0  0  0
    6.9006   -0.9980   23.7028 H   0  0  0  0  0  0  0  0  0  0  0  0
    7.7456   -2.2357   23.0541 H   0  0  0  0  0  0  0  0  0  0  0  0
    5.5904   -1.1051   21.8939 H   0  0  0  0  0  0  0  0  0  0  0  0
    6.6463   -2.0761   21.1137 H   0  0  0  0  0  0  0  0  0  0  0  0
    7.8701   -0.2761   18.4648 H   0  0  0  0  0  0  0  0  0  0  0  0
    5.0264    1.1066   21.9114 H   0  0  0  0  0  0  0  0  0  0  0  0
    4.9653    1.8817   16.6386 H   0  0  0  0  0  0  0  0  0  0  0  0
    3.1679    2.8859   17.8872 H   0  0  0  0  0  0  0  0  0  0  0  0
    2.0935    3.2947   19.9902 H   0  0  0  0  0  0  0  0  0  0  0  0
  1  2  1  0  0  0  0
  2  3  2  0  0  0  0
  2  4  1  0  0  0  0
  3  5  1  0  0  0  0
  3  6  1  0  0  0  0
  4  7  2  0  0  0  0
  5  8  2  0  0  0  0
  6  9  1  0  0  0  0
  9 10  1  0  0  0  0
  9 11  1  0  0  0  0
 10 12  2  0  0  0  0
 10 13  1  0  0  0  0
 11 14  1  0  0  0  0
 13 15  1  0  0  0  0
 15 16  1  0  0  0  0
 15 17  2  0  0  0  0
 16 18  1  0  0  0  0
 16 19  2  0  0  0  0
 17 20  1  0  0  0  0
 18 21  1  0  0  0  0
 18 22  2  0  0  0  0
 19 23  1  0  0  0  0
 22 24  1  0  0  0  0
 23 25  1  0  0  0  0
  7  8  1  0  0  0  0
 13 14  1  0  0  0  0
 20 21  2  0  0  0  0
 23 24  2  0  0  0  0
  4 26  1  0  0  0  0
  5 27  1  0  0  0  0
  6 28  1  0  0  0  0
  6 29  1  0  0  0  0
  7 30  1  0  0  0  0
  8 31  1  0  0  0  0
 11 32  1  0  0  0  0
 11 33  1  0  0  0  0
 14 34  1  0  0  0  0
 14 35  1  0  0  0  0
 17 36  1  0  0  0  0
 19 37  1  0  0  0  0
 21 38  1  0  0  0  0
 22 39  1  0  0  0  0
 24 40  1  0  0  0  0
M  END
> <BIOSOLVEIT.HYDE_ESTIMATED_AFFINITY_LOWER_BOUNDARY [nM]>
8030.572805

> <BIOSOLVEIT.HYDE_ESTIMATED_AFFINITY_UPPER_BOUNDARY [nM]>
797884.888645

> <BIOSOLVEIT.HYDE_LIGAND_EFFICIENCY range: ++, +, 0, -, -->
-

> <BIOSOLVEIT.HYDE_LIGAND_LIPOPHILIC_EFFICIENCY range: ++, +, 0, -, -->
--

> <BIOSOLVEIT.INTER_CLASH range: red, yellow, green>
green

> <BIOSOLVEIT.INTRA_CLASH range: red, yellow, green>
green

> <BIOSOLVEIT.LOGP>
4.9838

> <BIOSOLVEIT.MOLECULAR WEIGHT>
372.254

> <BIOSOLVEIT.MOLECULE_CHECKSUM>
LTIzLjM4Mzg7MC45MzUzNQ==

> <BIOSOLVEIT.TORSION_QUALITY range: red, yellow, green, not rotatable>
yellow

> <BIOSOLVEIT.TPSA>
36.44

> <BIOSOLVEIT.SEESAR_FAVORITE>
favorite

> <smc_score>
0.563

> <QED_score>
0.65

> <distance>
0.578

> <SimilarityPheSA_1>
0.766

> <Smiles>
O=C1N(Cc2ccccc2Cl)CCN1c1cncc2ccc(Cl)cc12

> <Similarity_SkelSpheres>
0.732

> <Cluster No>
405.0

> <QueryID>
PET-UNK-c9c1e0d8-3

> <SimilarityPheSA>
0.7662

> <Postera series>
3-aminopyridine-like

> <PDB_code>
Mpro-x12587

> <Approach>
DGM_focussed_RL

> <ID>
20210618_714

> <SimilarityPheSA_2>
0.938

> <OPTIBRIUM.logD>
4.28612

> <OPTIBRIUM.BBB category>
+

> <OPTIBRIUM.logP>
4.28612

> <OPTIBRIUM.P-gp category>
no

> <OPTIBRIUM.logS>
-0.0690537

> <OPTIBRIUM.HIA category>
+

> <OPTIBRIUM.PPB90 category>
high

> <OPTIBRIUM.2D6 affinity category>
medium

> <OPTIBRIUM.hERG pIC50>
5.60476

> <OPTIBRIUM.2C9 pKi>
5.70523

> <OPTIBRIUM.BBB log([brain]:[blood])>
0.0777893

> <OPTIBRIUM.logS @ pH7.4>
-0.0690537

$$$$
Compound 330_1_04
haSeeSAR  07122111353D 1   1.00000     0.00000     0
SeeSAR 11.0.2 hazemaj
 47 50  0  0  0  0            999 V2000
    7.2888    5.5191   26.5496 Cl  0  0  0  0  0  0  0  0  0  0  0  0
    6.8418    3.9058   27.1556 C   0  0  0  0  0  0  0  0  0  0  0  0
    5.6312    3.7214   27.8150 C   0  0  0  0  0  0  0  0  0  0  0  0
    7.7108    2.8383   26.9617 C   0  0  0  0  0  0  0  0  0  0  0  0
    4.5367    5.1048   28.0511 Cl  0  0  0  0  0  0  0  0  0  0  0  0
    5.2712    2.4646   28.2911 C   0  0  0  0  0  0  0  0  0  0  0  0
    7.3462    1.5848   27.4401 C   0  0  0  0  0  0  0  0  0  0  0  0
    6.1376    1.3933   28.1009 C   0  0  0  0  0  0  0  0  0  0  0  0
    8.2843    0.4058   27.2365 C   0  0  0  0  0  0  0  0  0  0  0  0
    8.1642   -0.0823   25.8577 N   0  0  0  0  0  0  0  0  0  0  0  0
    9.1573    0.0311   24.8902 C   0  0  0  0  0  0  0  0  0  0  0  0
    6.9865   -0.7364   25.2632 C   0  0  0  0  0  0  0  0  0  0  0  0
   10.2252    0.5932   25.0857 O   0  0  0  0  0  0  0  0  0  0  0  0
    8.7607   -0.5833   23.6946 N   0  0  0  0  0  0  0  0  0  0  0  0
    7.4517   -1.2140   23.9026 C   0  0  0  0  0  0  0  0  0  0  0  0
    9.5490   -0.6119   22.4502 C   0  0  0  0  0  0  0  0  0  0  0  0
    8.7554    0.0450   21.3325 C   0  0  0  0  0  0  0  0  0  0  0  0
    9.1037    1.1404   20.8919 O   0  0  0  0  0  0  0  0  0  0  0  0
    7.6903   -0.5606   20.8334 N   0  0  0  0  0  0  0  0  0  0  0  0
    6.9581    0.0455   19.8021 C   0  0  0  0  0  0  0  0  0  0  0  0
    5.7614    0.6977   20.0987 C   0  0  0  0  0  0  0  0  0  0  0  0
    7.3994    0.0054   18.4826 C   0  0  0  0  0  0  0  0  0  0  0  0
    5.0171    1.3172   19.1119 C   0  0  0  0  0  0  0  0  0  0  0  0
    5.0325    0.8751   21.4122 C   0  0  0  0  0  0  0  0  0  0  0  0
    6.6655    0.5953   17.5254 N   0  0  0  0  0  0  0  0  0  0  0  0
    3.8847    1.8907   19.6974 N   0  0  0  0  0  0  0  0  0  0  0  0
    5.5181    1.2335   17.8138 C   0  0  0  0  0  0  0  0  0  0  0  0
    4.1199    2.0423   21.1376 C   0  0  0  0  0  0  0  0  0  0  0  0
    8.5814    2.9694   26.4874 H   0  0  0  0  0  0  0  0  0  0  0  0
    4.4002    2.3332   28.7645 H   0  0  0  0  0  0  0  0  0  0  0  0
    5.8913    0.4851   28.4393 H   0  0  0  0  0  0  0  0  0  0  0  0
    8.0411   -0.3270   27.8720 H   0  0  0  0  0  0  0  0  0  0  0  0
    9.2260    0.6958   27.4067 H   0  0  0  0  0  0  0  0  0  0  0  0
    6.2327   -0.0860   25.1692 H   0  0  0  0  0  0  0  0  0  0  0  0
    6.6918   -1.5091   25.8256 H   0  0  0  0  0  0  0  0  0  0  0  0
    6.8086   -0.9273   23.1924 H   0  0  0  0  0  0  0  0  0  0  0  0
    7.5378   -2.2102   23.8919 H   0  0  0  0  0  0  0  0  0  0  0  0
    9.7491   -1.5602   22.2041 H   0  0  0  0  0  0  0  0  0  0  0  0
   10.4060   -0.1150   22.5870 H   0  0  0  0  0  0  0  0  0  0  0  0
    7.4074   -1.4504   21.1913 H   0  0  0  0  0  0  0  0  0  0  0  0
    8.2544   -0.4581   18.2499 H   0  0  0  0  0  0  0  0  0  0  0  0
    5.6714    1.0846   22.1524 H   0  0  0  0  0  0  0  0  0  0  0  0
    4.5084    0.0562   21.6461 H   0  0  0  0  0  0  0  0  0  0  0  0
    3.0503    2.1545   19.2134 H   0  0  0  0  0  0  0  0  0  0  0  0
    5.0057    1.6638   17.0706 H   0  0  0  0  0  0  0  0  0  0  0  0
    4.5659    2.9128   21.3460 H   0  0  0  0  0  0  0  0  0  0  0  0
    3.2684    1.9713   21.6571 H   0  0  0  0  0  0  0  0  0  0  0  0
  1  2  1  0  0  0  0
  2  3  2  0  0  0  0
  2  4  1  0  0  0  0
  3  5  1  0  0  0  0
  3  6  1  0  0  0  0
  4  7  2  0  0  0  0
  6  8  2  0  0  0  0
  7  9  1  0  0  0  0
  9 10  1  0  0  0  0
 10 11  1  0  0  0  0
 10 12  1  0  0  0  0
 11 13  2  0  0  0  0
 11 14  1  0  0  0  0
 12 15  1  0  0  0  0
 14 16  1  0  0  0  0
 16 17  1  0  0  0  0
 17 18  2  0  0  0  0
 17 19  1  0  0  0  0
 19 20  1  0  0  0  0
 20 21  2  0  0  0  0
 20 22  1  0  0  0  0
 21 23  1  0  0  0  0
 21 24  1  0  0  0  0
 22 25  2  0  0  0  0
 23 26  1  0  0  0  0
 23 27  2  0  0  0  0
 24 28  1  0  0  0  0
  7  8  1  0  0  0  0
 14 15  1  0  0  0  0
 25 27  1  0  0  0  0
 26 28  1  0  0  0  0
  4 29  1  0  0  0  0
  6 30  1  0  0  0  0
  8 31  1  0  0  0  0
  9 32  1  0  0  0  0
  9 33  1  0  0  0  0
 12 34  1  0  0  0  0
 12 35  1  0  0  0  0
 15 36  1  0  0  0  0
 15 37  1  0  0  0  0
 16 38  1  0  0  0  0
 16 39  1  0  0  0  0
 19 40  1  0  0  0  0
 22 41  1  0  0  0  0
 24 42  1  0  0  0  0
 24 43  1  0  0  0  0
 26 44  1  0  0  0  0
 27 45  1  0  0  0  0
 28 46  1  0  0  0  0
 28 47  1  0  0  0  0
M  END
> <BIOSOLVEIT.HYDE_ESTIMATED_AFFINITY_LOWER_BOUNDARY [nM]>
8178.117073

> <BIOSOLVEIT.HYDE_ESTIMATED_AFFINITY_UPPER_BOUNDARY [nM]>
812544.284023

> <BIOSOLVEIT.HYDE_LIGAND_EFFICIENCY range: ++, +, 0, -, -->
--

> <BIOSOLVEIT.HYDE_LIGAND_LIPOPHILIC_EFFICIENCY range: ++, +, 0, -, -->
--

> <BIOSOLVEIT.INTER_CLASH range: red, yellow, green>
green

> <BIOSOLVEIT.INTRA_CLASH range: red, yellow, green>
green

> <BIOSOLVEIT.LOGP>
3.2327

> <BIOSOLVEIT.MOLECULAR WEIGHT>
420.298

> <BIOSOLVEIT.MOLECULE_CHECKSUM>
LTIzLjMzODY7MC44MzM1MjI=

> <BIOSOLVEIT.TORSION_QUALITY range: red, yellow, green, not rotatable>
yellow

> <BIOSOLVEIT.TPSA>
77.57

> <BIOSOLVEIT.SEESAR_FAVORITE>
favorite

> <smc_score>
0.875

> <QED_score>
0.779

> <distance>
0.522

> <SimilarityPheSA_1>
0.664

> <Smiles>
O=C(CN1CCN(Cc2ccc(Cl)c(Cl)c2)C1=O)Nc1cncc2c1CCN2

> <Similarity_SkelSpheres>
0.672

> <Cluster No>
165.0

> <QueryID>
PET-UNK-c9c1e0d8-3

> <SimilarityPheSA>
0.6641

> <Postera series>
3-aminopyridine-like

> <PDB_code>
Mpro-x12587

> <Approach>
DGM_focussed_RL

> <ID>
20210618_329

> <SimilarityPheSA_2>
0.672

> <OPTIBRIUM.logD>
2.24858

> <OPTIBRIUM.BBB category>
-

> <OPTIBRIUM.logP>
2.16387

> <OPTIBRIUM.P-gp category>
yes

> <OPTIBRIUM.logS>
2.07129

> <OPTIBRIUM.HIA category>
+

> <OPTIBRIUM.PPB90 category>
high

> <OPTIBRIUM.2D6 affinity category>
medium

> <OPTIBRIUM.hERG pIC50>
4.78816

> <OPTIBRIUM.2C9 pKi>
5.63938

> <OPTIBRIUM.BBB log([brain]:[blood])>
-0.305901

> <OPTIBRIUM.logS @ pH7.4>
1.5639

$$$$
Compound 577_1_03
haSeeSAR  07122111353D 1   1.00000     0.00000     0
SeeSAR 11.0.2 hazemaj
 40 43  0  0  0  0            999 V2000
    8.1929    0.8823   28.9594 Cl  0  0  0  0  0  0  0  0  0  0  0  0
    8.7071    0.5227   27.2942 C   0  0  0  0  0  0  0  0  0  0  0  0
    7.7566    0.3548   26.2942 C   0  0  0  0  0  0  0  0  0  0  0  0
   10.0631    0.4104   27.0055 C   0  0  0  0  0  0  0  0  0  0  0  0
    6.0268    0.5023   26.6869 Cl  0  0  0  0  0  0  0  0  0  0  0  0
    8.1421    0.0719   24.9884 C   0  0  0  0  0  0  0  0  0  0  0  0
   10.4502    0.1279   25.6999 C   0  0  0  0  0  0  0  0  0  0  0  0
    9.4979   -0.0400   24.7012 C   0  0  0  0  0  0  0  0  0  0  0  0
   11.7424    0.0198   25.4106 F   0  0  0  0  0  0  0  0  0  0  0  0
    9.9396   -0.3498   23.2797 C   0  0  0  0  0  0  0  0  0  0  0  0
    8.7571   -0.5403   22.4302 N   0  0  0  0  0  0  0  0  0  0  0  0
    8.3678    0.2840   21.3768 C   0  0  0  0  0  0  0  0  0  0  0  0
    7.7817   -1.6270   22.6047 C   0  0  0  0  0  0  0  0  0  0  0  0
    8.9346    1.3201   21.0425 O   0  0  0  0  0  0  0  0  0  0  0  0
    7.2411   -0.2512   20.7625 N   0  0  0  0  0  0  0  0  0  0  0  0
    6.9050   -1.5414   21.3675 C   0  0  0  0  0  0  0  0  0  0  0  0
    6.5424    0.3405   19.7022 C   0  0  0  0  0  0  0  0  0  0  0  0
    5.3687    1.0405   19.9561 C   0  0  0  0  0  0  0  0  0  0  0  0
    7.0212    0.2220   18.4020 C   0  0  0  0  0  0  0  0  0  0  0  0
    4.6974    1.2740   21.1203 N   0  0  0  0  0  0  0  0  0  0  0  0
    4.6761    1.6379   18.9246 C   0  0  0  0  0  0  0  0  0  0  0  0
    6.3322    0.7993   17.4068 N   0  0  0  0  0  0  0  0  0  0  0  0
    3.6235    1.9840   20.8609 C   0  0  0  0  0  0  0  0  0  0  0  0
    3.5955    2.2163   19.5181 N   0  0  0  0  0  0  0  0  0  0  0  0
    5.2000    1.4858   17.6413 C   0  0  0  0  0  0  0  0  0  0  0  0
    2.5471    2.9711   18.8157 C   0  0  0  0  0  0  0  0  0  0  0  0
   10.7479    0.5306   27.7243 H   0  0  0  0  0  0  0  0  0  0  0  0
    7.4573   -0.0488   24.2697 H   0  0  0  0  0  0  0  0  0  0  0  0
   10.4905   -1.1844   23.2761 H   0  0  0  0  0  0  0  0  0  0  0  0
   10.4846    0.4107   22.9267 H   0  0  0  0  0  0  0  0  0  0  0  0
    7.2401   -1.4880   23.4337 H   0  0  0  0  0  0  0  0  0  0  0  0
    8.2427   -2.5131   22.6524 H   0  0  0  0  0  0  0  0  0  0  0  0
    5.9374   -1.5720   21.6182 H   0  0  0  0  0  0  0  0  0  0  0  0
    7.1100   -2.2904   20.7375 H   0  0  0  0  0  0  0  0  0  0  0  0
    7.8627   -0.2839   18.2129 H   0  0  0  0  0  0  0  0  0  0  0  0
    2.9480    2.2976   21.5281 H   0  0  0  0  0  0  0  0  0  0  0  0
    4.7178    1.9011   16.8699 H   0  0  0  0  0  0  0  0  0  0  0  0
    1.8677    3.2913   19.4761 H   0  0  0  0  0  0  0  0  0  0  0  0
    2.9562    3.7564   18.3510 H   0  0  0  0  0  0  0  0  0  0  0  0
    2.1042    2.3788   18.1425 H   0  0  0  0  0  0  0  0  0  0  0  0
  1  2  1  0  0  0  0
  2  3  2  0  0  0  0
  2  4  1  0  0  0  0
  3  5  1  0  0  0  0
  3  6  1  0  0  0  0
  4  7  2  0  0  0  0
  6  8  2  0  0  0  0
  7  9  1  0  0  0  0
  8 10  1  0  0  0  0
 10 11  1  0  0  0  0
 11 12  1  0  0  0  0
 11 13  1  0  0  0  0
 12 14  2  0  0  0  0
 12 15  1  0  0  0  0
 13 16  1  0  0  0  0
 15 17  1  0  0  0  0
 17 18  2  0  0  0  0
 17 19  1  0  0  0  0
 18 20  1  0  0  0  0
 18 21  1  0  0  0  0
 19 22  2  0  0  0  0
 20 23  2  0  0  0  0
 21 24  1  0  0  0  0
 21 25  2  0  0  0  0
 24 26  1  0  0  0  0
  7  8  1  0  0  0  0
 15 16  1  0  0  0  0
 22 25  1  0  0  0  0
 23 24  1  0  0  0  0
  4 27  1  0  0  0  0
  6 28  1  0  0  0  0
 10 29  1  0  0  0  0
 10 30  1  0  0  0  0
 13 31  1  0  0  0  0
 13 32  1  0  0  0  0
 16 33  1  0  0  0  0
 16 34  1  0  0  0  0
 19 35  1  0  0  0  0
 23 36  1  0  0  0  0
 25 37  1  0  0  0  0
 26 38  1  0  0  0  0
 26 39  1  0  0  0  0
 26 40  1  0  0  0  0
M  END
> <BIOSOLVEIT.HYDE_ESTIMATED_AFFINITY_LOWER_BOUNDARY [nM]>
8206.837791

> <BIOSOLVEIT.HYDE_ESTIMATED_AFFINITY_UPPER_BOUNDARY [nM]>
815397.857246

> <BIOSOLVEIT.HYDE_LIGAND_EFFICIENCY range: ++, +, 0, -, -->
-

> <BIOSOLVEIT.HYDE_LIGAND_LIPOPHILIC_EFFICIENCY range: ++, +, 0, -, -->
--

> <BIOSOLVEIT.INTER_CLASH range: red, yellow, green>
green

> <BIOSOLVEIT.INTRA_CLASH range: red, yellow, green>
yellow

> <BIOSOLVEIT.LOGP>
3.8564

> <BIOSOLVEIT.MOLECULAR WEIGHT>
394.236

> <BIOSOLVEIT.MOLECULE_CHECKSUM>
LTIzLjMyOTk7MC44OTczMDU=

> <BIOSOLVEIT.TORSION_QUALITY range: red, yellow, green, not rotatable>
green

> <BIOSOLVEIT.TPSA>
54.26

> <BIOSOLVEIT.SEESAR_FAVORITE>
favorite

> <smc_score>
0.938

> <QED_score>
0.634

> <distance>
0.688

> <SimilarityPheSA_1>
0.663

> <Smiles>
Cn1cnc2c(N3CCN(Cc4cc(Cl)c(Cl)cc4F)C3=O)cncc21

> <Similarity_SkelSpheres>
0.665

> <Cluster No>
309.0

> <QueryID>
MAT-POS-f7918075-5

> <SimilarityPheSA>
0.6625

> <Postera series>
3-aminopyridine-like

> <PDB_code>
Mpro-x11499

> <Approach>
DGM_focussed_RL

> <ID>
20210618_576

> <SimilarityPheSA_2>
0.827

> <OPTIBRIUM.logD>
3.22751

> <OPTIBRIUM.BBB category>
-

> <OPTIBRIUM.logP>
3.22751

> <OPTIBRIUM.P-gp category>
no

> <OPTIBRIUM.logS>
0.531667

> <OPTIBRIUM.HIA category>
+

> <OPTIBRIUM.PPB90 category>
high

> <OPTIBRIUM.2D6 affinity category>
medium

> <OPTIBRIUM.hERG pIC50>
5.93338

> <OPTIBRIUM.2C9 pKi>
5.66834

> <OPTIBRIUM.BBB log([brain]:[blood])>
-0.214779

> <OPTIBRIUM.logS @ pH7.4>
0.531667

$$$$
Compound 540_1_06
haSeeSAR  07122111353D 1   1.00000     0.00000     0
SeeSAR 11.0.2 hazemaj
 35 38  0  0  0  0            999 V2000
    9.7957    2.4372   22.5137 Cl  0  0  0  0  0  0  0  0  0  0  0  0
   10.5979    0.8548   22.6703 C   0  0  0  0  0  0  0  0  0  0  0  0
   11.9737    0.8376   22.8644 C   0  0  0  0  0  0  0  0  0  0  0  0
    9.9051   -0.3519   22.6003 C   0  0  0  0  0  0  0  0  0  0  0  0
   12.8744    2.3697   22.9713 Cl  0  0  0  0  0  0  0  0  0  0  0  0
   12.6371   -0.3787   22.9752 C   0  0  0  0  0  0  0  0  0  0  0  0
   10.5501   -1.5614   22.7485 C   0  0  0  0  0  0  0  0  0  0  0  0
    8.4406   -0.6591   22.3578 C   0  0  1  0  0  0  0  0  0  0  0  0
   11.9312   -1.5747   22.9180 C   0  0  0  0  0  0  0  0  0  0  0  0
    9.6651   -2.5737   22.7225 O   0  0  0  0  0  0  0  0  0  0  0  0
    7.8695    0.0376   21.1338 C   0  0  0  0  0  0  0  0  0  0  0  0
    8.4897   -2.1427   22.0627 C   0  0  0  0  0  0  0  0  0  0  0  0
    8.5398    0.8794   20.5359 O   0  0  0  0  0  0  0  0  0  0  0  0
    6.6519   -0.2605   20.7108 N   0  0  0  0  0  0  0  0  0  0  0  0
    6.1252    0.3818   19.5822 C   0  0  0  0  0  0  0  0  0  0  0  0
    5.1659    1.3657   19.6754 N   0  0  0  0  0  0  0  0  0  0  0  0
    6.6143   -0.0169   18.3657 C   0  0  0  0  0  0  0  0  0  0  0  0
    4.6999    1.9500   18.5438 C   0  0  0  0  0  0  0  0  0  0  0  0
    4.4991    1.9516   20.7089 C   0  0  0  0  0  0  0  0  0  0  0  0
    6.1322    0.5817   17.2299 N   0  0  0  0  0  0  0  0  0  0  0  0
    3.7939    2.8414   18.8796 N   0  0  0  0  0  0  0  0  0  0  0  0
    5.2117    1.5291   17.2868 C   0  0  0  0  0  0  0  0  0  0  0  0
    3.6817    2.8349   20.1903 N   0  0  0  0  0  0  0  0  0  0  0  0
    4.6407    1.6642   22.1972 C   0  0  0  0  0  0  0  0  0  0  0  0
   13.6296   -0.3934   23.0970 H   0  0  0  0  0  0  0  0  0  0  0  0
    7.8912   -0.4698   23.1716 H   0  0  0  0  0  0  0  0  0  0  0  0
   12.4161   -2.4455   22.9987 H   0  0  0  0  0  0  0  0  0  0  0  0
    8.5510   -2.3093   21.0786 H   0  0  0  0  0  0  0  0  0  0  0  0
    7.6834   -2.6067   22.4297 H   0  0  0  0  0  0  0  0  0  0  0  0
    6.1074   -0.9445   21.1964 H   0  0  0  0  0  0  0  0  0  0  0  0
    7.3108   -0.7320   18.3072 H   0  0  0  0  0  0  0  0  0  0  0  0
    4.8753    1.9498   16.4442 H   0  0  0  0  0  0  0  0  0  0  0  0
    4.0181    2.2541   22.7114 H   0  0  0  0  0  0  0  0  0  0  0  0
    4.4149    0.7063   22.3746 H   0  0  0  0  0  0  0  0  0  0  0  0
    5.5821    1.8433   22.4832 H   0  0  0  0  0  0  0  0  0  0  0  0
  1  2  1  0  0  0  0
  2  3  2  0  0  0  0
  2  4  1  0  0  0  0
  3  5  1  0  0  0  0
  3  6  1  0  0  0  0
  4  7  2  0  0  0  0
  4  8  1  0  0  0  0
  6  9  2  0  0  0  0
  7 10  1  0  0  0  0
  8 11  1  0  0  0  0
  8 12  1  0  0  0  0
 11 13  2  0  0  0  0
 11 14  1  0  0  0  0
 14 15  1  0  0  0  0
 15 16  1  0  0  0  0
 15 17  2  0  0  0  0
 16 18  1  0  0  0  0
 16 19  1  0  0  0  0
 17 20  1  0  0  0  0
 18 21  2  0  0  0  0
 18 22  1  0  0  0  0
 19 23  2  0  0  0  0
 19 24  1  0  0  0  0
  7  9  1  0  0  0  0
 10 12  1  0  0  0  0
 20 22  2  0  0  0  0
 21 23  1  0  0  0  0
  6 25  1  0  0  0  0
  8 26  1  0  0  0  0
  9 27  1  0  0  0  0
 12 28  1  0  0  0  0
 12 29  1  0  0  0  0
 14 30  1  0  0  0  0
 17 31  1  0  0  0  0
 22 32  1  0  0  0  0
 24 33  1  0  0  0  0
 24 34  1  0  0  0  0
 24 35  1  0  0  0  0
M  END
> <BIOSOLVEIT.HYDE_ESTIMATED_AFFINITY_LOWER_BOUNDARY [nM]>
9915.382173

> <BIOSOLVEIT.HYDE_ESTIMATED_AFFINITY_UPPER_BOUNDARY [nM]>
985151.843297

> <BIOSOLVEIT.HYDE_LIGAND_EFFICIENCY range: ++, +, 0, -, -->
-

> <BIOSOLVEIT.HYDE_LIGAND_LIPOPHILIC_EFFICIENCY range: ++, +, 0, -, -->
--

> <BIOSOLVEIT.INTER_CLASH range: red, yellow, green>
yellow

> <BIOSOLVEIT.INTRA_CLASH range: red, yellow, green>
yellow

> <BIOSOLVEIT.LOGP>
2.85422

> <BIOSOLVEIT.MOLECULAR WEIGHT>
364.191

> <BIOSOLVEIT.MOLECULE_CHECKSUM>
LTIyLjg2MTE7MC45NTI1NDY=

> <BIOSOLVEIT.TORSION_QUALITY range: red, yellow, green, not rotatable>
green

> <BIOSOLVEIT.TPSA>
81.93

> <BIOSOLVEIT.SEESAR_FAVORITE>
favorite

> <smc_score>
0.688

> <QED_score>
0.756

> <distance>
0.608

> <SimilarityPheSA_1>
0.675

> <Smiles>
Cc1nnc2cncc(NC(=O)C3COc4ccc(Cl)c(Cl)c43)n12

> <Similarity_SkelSpheres>
0.572

> <Cluster No>
288.0

> <QueryID>
EDJ-MED-e4b030d8-13

> <SimilarityPheSA>
0.6751

> <Postera series>
3-aminopyridine-like

> <PDB_code>
Mpro-x12207

> <Approach>
DGM_focussed_RL

> <ID>
20210618_539

> <SimilarityPheSA_2>
0.919

> <OPTIBRIUM.logD>
2.6583

> <OPTIBRIUM.BBB category>
-

> <OPTIBRIUM.logP>
2.6583

> <OPTIBRIUM.P-gp category>
no

> <OPTIBRIUM.logS>
1.66321

> <OPTIBRIUM.HIA category>
+

> <OPTIBRIUM.PPB90 category>
high

> <OPTIBRIUM.2D6 affinity category>
high

> <OPTIBRIUM.hERG pIC50>
4.70586

> <OPTIBRIUM.2C9 pKi>
5.48148

> <OPTIBRIUM.BBB log([brain]:[blood])>
-0.434145

> <OPTIBRIUM.logS @ pH7.4>
1.66321

$$$$
Compound 760_1_02
haSeeSAR  07122111353D 1   1.00000     0.00000     0
SeeSAR 11.0.2 hazemaj
 48 50  0  0  0  0            999 V2000
   13.4965    1.1214   23.0916 Cl  0  0  0  0  0  0  0  0  0  0  0  0
   11.9916    0.2442   22.7264 C   0  0  0  0  0  0  0  0  0  0  0  0
   12.0538   -1.0362   22.1865 C   0  0  0  0  0  0  0  0  0  0  0  0
   10.7621    0.8416   22.9823 C   0  0  0  0  0  0  0  0  0  0  0  0
   13.6338   -1.7903   21.8644 Cl  0  0  0  0  0  0  0  0  0  0  0  0
   10.8897   -1.7388   21.8928 C   0  0  0  0  0  0  0  0  0  0  0  0
    9.6008    0.1356   22.6876 C   0  0  0  0  0  0  0  0  0  0  0  0
    9.6575   -1.1447   22.1470 C   0  0  0  0  0  0  0  0  0  0  0  0
    8.2545    0.7847   22.9653 C   0  0  0  0  0  0  0  0  0  0  0  0
    7.7299    1.4280   21.6919 C   0  0  0  0  0  0  0  0  0  0  0  0
    8.4955    2.0516   20.9569 O   0  0  0  0  0  0  0  0  0  0  0  0
    6.3756    1.3112   21.3549 N   0  0  0  0  0  0  0  0  0  0  0  0
    5.5819    2.3947   20.7644 C   0  0  1  0  0  0  0  0  0  0  0  0
    5.5858    0.0897   21.5472 C   0  0  0  0  0  0  0  0  0  0  0  0
    4.5447    1.7043   19.9103 C   0  0  0  0  0  0  0  0  0  0  0  0
    4.8628    3.1726   21.8548 C   0  0  0  0  0  0  0  0  0  0  0  0
    5.5182   -0.5237   20.1627 C   0  0  0  0  0  0  0  0  0  0  0  0
    5.2736    0.6053   19.2672 N   0  0  0  0  0  0  0  0  0  0  0  0
    5.8525    3.7167   22.8051 N   0  0  0  0  0  0  0  0  0  0  0  0
    5.7090    0.6361   17.9369 C   0  0  0  0  0  0  0  0  0  0  0  0
    6.7515    4.7368   22.5332 C   0  0  0  0  0  0  0  0  0  0  0  0
    6.0524    3.2557   24.1800 C   0  0  0  0  0  0  0  0  0  0  0  0
    6.2514   -0.3528   17.4437 O   0  0  0  0  0  0  0  0  0  0  0  0
    5.5121    1.8907   17.1017 C   0  0  0  0  0  0  0  0  0  0  0  0
    6.8895    5.2756   21.4495 O   0  0  0  0  0  0  0  0  0  0  0  0
    7.4491    5.0426   23.6449 O   0  0  0  0  0  0  0  0  0  0  0  0
    6.9876    4.3091   24.7613 C   0  0  0  0  0  0  0  0  0  0  0  0
   10.7140    1.7617   23.3708 H   0  0  0  0  0  0  0  0  0  0  0  0
   10.9379   -2.6589   21.5041 H   0  0  0  0  0  0  0  0  0  0  0  0
    8.8124   -1.6383   21.9409 H   0  0  0  0  0  0  0  0  0  0  0  0
    8.3610    1.4837   23.6725 H   0  0  0  0  0  0  0  0  0  0  0  0
    7.6075    0.0896   23.2785 H   0  0  0  0  0  0  0  0  0  0  0  0
    6.1559    2.9993   20.2123 H   0  0  0  0  0  0  0  0  0  0  0  0
    4.6700    0.3077   21.8847 H   0  0  0  0  0  0  0  0  0  0  0  0
    6.0388   -0.5294   22.1887 H   0  0  0  0  0  0  0  0  0  0  0  0
    4.1753    2.3324   19.2254 H   0  0  0  0  0  0  0  0  0  0  0  0
    3.7990    1.3514   20.4754 H   0  0  0  0  0  0  0  0  0  0  0  0
    4.2348    2.5638   22.3396 H   0  0  0  0  0  0  0  0  0  0  0  0
    4.3474    3.9242   21.4434 H   0  0  0  0  0  0  0  0  0  0  0  0
    4.7712   -1.1863   20.1068 H   0  0  0  0  0  0  0  0  0  0  0  0
    6.3812   -0.9743   19.9343 H   0  0  0  0  0  0  0  0  0  0  0  0
    6.4759    2.3500   24.1975 H   0  0  0  0  0  0  0  0  0  0  0  0
    5.1865    3.2285   24.6796 H   0  0  0  0  0  0  0  0  0  0  0  0
    5.8780    1.7405   16.1832 H   0  0  0  0  0  0  0  0  0  0  0  0
    4.5363    2.1012   17.0414 H   0  0  0  0  0  0  0  0  0  0  0  0
    5.9923    2.6556   17.5308 H   0  0  0  0  0  0  0  0  0  0  0  0
    7.7523    3.8759   25.2381 H   0  0  0  0  0  0  0  0  0  0  0  0
    6.4948    4.9057   25.3948 H   0  0  0  0  0  0  0  0  0  0  0  0
  1  2  1  0  0  0  0
  2  3  2  0  0  0  0
  2  4  1  0  0  0  0
  3  5  1  0  0  0  0
  3  6  1  0  0  0  0
  4  7  2  0  0  0  0
  6  8  2  0  0  0  0
  7  9  1  0  0  0  0
  9 10  1  0  0  0  0
 10 11  2  0  0  0  0
 10 12  1  0  0  0  0
 12 13  1  0  0  0  0
 12 14  1  0  0  0  0
 13 15  1  0  0  0  0
 13 16  1  0  0  0  0
 14 17  1  0  0  0  0
 15 18  1  0  0  0  0
 16 19  1  0  0  0  0
 18 20  1  0  0  0  0
 19 21  1  0  0  0  0
 19 22  1  0  0  0  0
 20 23  2  0  0  0  0
 20 24  1  0  0  0  0
 21 25  2  0  0  0  0
 21 26  1  0  0  0  0
 22 27  1  0  0  0  0
  7  8  1  0  0  0  0
 17 18  1  0  0  0  0
 26 27  1  0  0  0  0
  4 28  1  0  0  0  0
  6 29  1  0  0  0  0
  8 30  1  0  0  0  0
  9 31  1  0  0  0  0
  9 32  1  0  0  0  0
 13 33  1  0  0  0  0
 14 34  1  0  0  0  0
 14 35  1  0  0  0  0
 15 36  1  0  0  0  0
 15 37  1  0  0  0  0
 16 38  1  0  0  0  0
 16 39  1  0  0  0  0
 17 40  1  0  0  0  0
 17 41  1  0  0  0  0
 22 42  1  0  0  0  0
 22 43  1  0  0  0  0
 24 44  1  0  0  0  0
 24 45  1  0  0  0  0
 24 46  1  0  0  0  0
 27 47  1  0  0  0  0
 27 48  1  0  0  0  0
M  END
> <BIOSOLVEIT.HYDE_ESTIMATED_AFFINITY_LOWER_BOUNDARY [nM]>
10839.826667

> <BIOSOLVEIT.HYDE_ESTIMATED_AFFINITY_UPPER_BOUNDARY [nM]>
1077000.869501

> <BIOSOLVEIT.HYDE_LIGAND_EFFICIENCY range: ++, +, 0, -, -->
-

> <BIOSOLVEIT.HYDE_LIGAND_LIPOPHILIC_EFFICIENCY range: ++, +, 0, -, -->
--

> <BIOSOLVEIT.INTER_CLASH range: red, yellow, green>
green

> <BIOSOLVEIT.INTRA_CLASH range: red, yellow, green>
green

> <BIOSOLVEIT.LOGP>
2.0474

> <BIOSOLVEIT.MOLECULAR WEIGHT>
414.287

> <BIOSOLVEIT.MOLECULE_CHECKSUM>
LTIyLjY0MDE7MC44Mzg1MjQ=

> <BIOSOLVEIT.TORSION_QUALITY range: red, yellow, green, not rotatable>
green

> <BIOSOLVEIT.TPSA>
70.16

> <BIOSOLVEIT.SEESAR_FAVORITE>
favorite

> <smc_score>
0.563

> <QED_score>
0.756

> <distance>
0.732

> <SimilarityPheSA_1>
0.63

> <Smiles>
CC(=O)N1CCN(C(=O)Cc2ccc(Cl)c(Cl)c2)C(CN2CCOC2=O)C1

> <Similarity_SkelSpheres>
0.618

> <Cluster No>
12.0

> <QueryID>
MAT-POS-bb423b95-1

> <SimilarityPheSA>
0.6302

> <Postera series>
3-aminopyridine-like

> <PDB_code>
Mpro-x11542

> <Approach>
DGM_exploratory_RL

> <ID>
20210628_30

> <SimilarityPheSA_2>
0.613

> <OPTIBRIUM.logD>
1.39605

> <OPTIBRIUM.BBB category>
-

> <OPTIBRIUM.logP>
1.39605

> <OPTIBRIUM.P-gp category>
yes

> <OPTIBRIUM.logS>
3.56248

> <OPTIBRIUM.HIA category>
+

> <OPTIBRIUM.PPB90 category>
low

> <OPTIBRIUM.2D6 affinity category>
medium

> <OPTIBRIUM.hERG pIC50>
4.67136

> <OPTIBRIUM.2C9 pKi>
4.76795

> <OPTIBRIUM.BBB log([brain]:[blood])>
-0.889797

> <OPTIBRIUM.logS @ pH7.4>
3.56248

$$$$
Compound 413_1_04
haSeeSAR  07122111353D 1   1.00000     0.00000     0
SeeSAR 11.0.2 hazemaj
 47 50  0  0  0  0            999 V2000
    5.3162    0.2253   26.5620 Cl  0  0  0  0  0  0  0  0  0  0  0  0
    6.7702   -0.7307   26.1861 C   0  0  0  0  0  0  0  0  0  0  0  0
    7.8743   -0.1041   25.6174 C   0  0  0  0  0  0  0  0  0  0  0  0
    6.7860   -2.0935   26.4643 C   0  0  0  0  0  0  0  0  0  0  0  0
    7.8385    1.2201   25.3552 O   0  0  0  0  0  0  0  0  0  0  0  0
    9.0071   -0.8569   25.3266 C   0  0  0  0  0  0  0  0  0  0  0  0
    7.9292   -2.8271   26.1645 C   0  0  0  0  0  0  0  0  0  0  0  0
    7.3898    1.6815   24.0894 C   0  0  0  0  0  0  0  0  0  0  0  0
    9.0450   -2.2208   25.5964 C   0  0  0  0  0  0  0  0  0  0  0  0
   10.2245   -0.1897   24.7063 C   0  0  0  0  0  0  0  0  0  0  0  0
    7.9599   -4.5716   26.5170 Cl  0  0  0  0  0  0  0  0  0  0  0  0
   10.4906   -0.8481   23.0414 S   0  0  0  0  0  0  0  0  0  0  0  0
   11.3961    0.0118   22.3242 O   0  0  0  0  0  0  0  0  0  0  0  0
   11.0546   -2.1699   23.1324 O   0  0  0  0  0  0  0  0  0  0  0  0
    9.0137   -0.9206   22.2213 N   0  0  0  0  0  0  0  0  0  0  0  0
    8.6062   -0.0539   21.2092 C   0  0  0  0  0  0  0  0  0  0  0  0
    7.9428   -1.8892   22.5011 C   0  0  0  0  0  0  0  0  0  0  0  0
    9.2642    0.9046   20.8133 O   0  0  0  0  0  0  0  0  0  0  0  0
    7.3562   -0.4281   20.7242 N   0  0  0  0  0  0  0  0  0  0  0  0
    6.9295   -1.6574   21.3976 C   0  0  0  0  0  0  0  0  0  0  0  0
    6.6181    0.2481   19.7434 C   0  0  0  0  0  0  0  0  0  0  0  0
    7.0712    0.2154   18.4301 C   0  0  0  0  0  0  0  0  0  0  0  0
    5.4506    0.9498   20.0336 C   0  0  0  0  0  0  0  0  0  0  0  0
    8.1868   -0.4584   18.1705 F   0  0  0  0  0  0  0  0  0  0  0  0
    6.3933    0.8489   17.4610 N   0  0  0  0  0  0  0  0  0  0  0  0
    4.7603    1.6017   19.0157 C   0  0  0  0  0  0  0  0  0  0  0  0
    4.9436    1.0203   21.3289 C   0  0  0  0  0  0  0  0  0  0  0  0
    5.2675    1.5296   17.7224 C   0  0  0  0  0  0  0  0  0  0  0  0
    3.5918    2.3087   19.2800 C   0  0  0  0  0  0  0  0  0  0  0  0
    3.7781    1.7201   21.6209 C   0  0  0  0  0  0  0  0  0  0  0  0
    3.1093    2.3616   20.5839 C   0  0  0  0  0  0  0  0  0  0  0  0
    5.9890   -2.5384   26.8728 H   0  0  0  0  0  0  0  0  0  0  0  0
    7.4276    2.6805   24.0661 H   0  0  0  0  0  0  0  0  0  0  0  0
    7.9776    1.3088   23.3713 H   0  0  0  0  0  0  0  0  0  0  0  0
    6.4481    1.3799   23.9393 H   0  0  0  0  0  0  0  0  0  0  0  0
    9.8619   -2.7576   25.3852 H   0  0  0  0  0  0  0  0  0  0  0  0
   11.0294   -0.3743   25.2702 H   0  0  0  0  0  0  0  0  0  0  0  0
   10.0732    0.7974   24.6540 H   0  0  0  0  0  0  0  0  0  0  0  0
    7.5355   -1.7173   23.3980 H   0  0  0  0  0  0  0  0  0  0  0  0
    8.2943   -2.8248   22.4683 H   0  0  0  0  0  0  0  0  0  0  0  0
    6.0136   -1.5447   21.7828 H   0  0  0  0  0  0  0  0  0  0  0  0
    6.9295   -2.4248   20.7566 H   0  0  0  0  0  0  0  0  0  0  0  0
    5.4306    0.5555   22.0683 H   0  0  0  0  0  0  0  0  0  0  0  0
    4.7862    1.9915   16.9775 H   0  0  0  0  0  0  0  0  0  0  0  0
    3.1040    2.7736   18.5412 H   0  0  0  0  0  0  0  0  0  0  0  0
    3.4282    1.7612   22.5568 H   0  0  0  0  0  0  0  0  0  0  0  0
    2.2694    2.8685   20.7782 H   0  0  0  0  0  0  0  0  0  0  0  0
  1  2  1  0  0  0  0
  2  3  2  0  0  0  0
  2  4  1  0  0  0  0
  3  5  1  0  0  0  0
  3  6  1  0  0  0  0
  4  7  2  0  0  0  0
  5  8  1  0  0  0  0
  6  9  2  0  0  0  0
  6 10  1  0  0  0  0
  7 11  1  0  0  0  0
 10 12  1  0  0  0  0
 12 13  2  0  0  0  0
 12 14  2  0  0  0  0
 12 15  1  0  0  0  0
 15 16  1  0  0  0  0
 15 17  1  0  0  0  0
 16 18  2  0  0  0  0
 16 19  1  0  0  0  0
 17 20  1  0  0  0  0
 19 21  1  0  0  0  0
 21 22  2  0  0  0  0
 21 23  1  0  0  0  0
 22 24  1  0  0  0  0
 22 25  1  0  0  0  0
 23 26  1  0  0  0  0
 23 27  2  0  0  0  0
 25 28  2  0  0  0  0
 26 29  2  0  0  0  0
 27 30  1  0  0  0  0
 29 31  1  0  0  0  0
  7  9  1  0  0  0  0
 19 20  1  0  0  0  0
 26 28  1  0  0  0  0
 30 31  2  0  0  0  0
  4 32  1  0  0  0  0
  8 33  1  0  0  0  0
  8 34  1  0  0  0  0
  8 35  1  0  0  0  0
  9 36  1  0  0  0  0
 10 37  1  0  0  0  0
 10 38  1  0  0  0  0
 17 39  1  0  0  0  0
 17 40  1  0  0  0  0
 20 41  1  0  0  0  0
 20 42  1  0  0  0  0
 27 43  1  0  0  0  0
 28 44  1  0  0  0  0
 29 45  1  0  0  0  0
 30 46  1  0  0  0  0
 31 47  1  0  0  0  0
M  END
> <BIOSOLVEIT.HYDE_ESTIMATED_AFFINITY_LOWER_BOUNDARY [nM]>
12689.579910

> <BIOSOLVEIT.HYDE_ESTIMATED_AFFINITY_UPPER_BOUNDARY [nM]>
1260784.790779

> <BIOSOLVEIT.HYDE_LIGAND_EFFICIENCY range: ++, +, 0, -, -->
--

> <BIOSOLVEIT.HYDE_LIGAND_LIPOPHILIC_EFFICIENCY range: ++, +, 0, -, -->
--

> <BIOSOLVEIT.INTER_CLASH range: red, yellow, green>
green

> <BIOSOLVEIT.INTRA_CLASH range: red, yellow, green>
green

> <BIOSOLVEIT.LOGP>
5.1119

> <BIOSOLVEIT.MOLECULAR WEIGHT>
484.332

> <BIOSOLVEIT.MOLECULE_CHECKSUM>
LTIyLjI0OTY7MC43MTc3Mjg=

> <BIOSOLVEIT.TORSION_QUALITY range: red, yellow, green, not rotatable>
green

> <BIOSOLVEIT.TPSA>
79.81

> <BIOSOLVEIT.SEESAR_FAVORITE>
favorite

> <smc_score>
0.75

> <QED_score>
0.5

> <distance>
0.655

> <SimilarityPheSA_1>
0.638

> <Smiles>
COc1c(Cl)cc(Cl)cc1CS(=O)(=O)N1CCN(c2c(F)ncc3ccccc23)C1=O

> <Similarity_SkelSpheres>
0.701

> <Cluster No>
211.0

> <QueryID>
PET-UNK-c9c1e0d8-3

> <SimilarityPheSA>
0.6376

> <Postera series>
3-aminopyridine-like

> <PDB_code>
Mpro-x12587

> <Approach>
DGM_focussed_RL

> <ID>
20210618_412

> <SimilarityPheSA_2>
0.729

> <OPTIBRIUM.logD>
3.2737

> <OPTIBRIUM.BBB category>
-

> <OPTIBRIUM.logP>
3.2737

> <OPTIBRIUM.P-gp category>
yes

> <OPTIBRIUM.logS>
-0.435268

> <OPTIBRIUM.HIA category>
+

> <OPTIBRIUM.PPB90 category>
high

> <OPTIBRIUM.2D6 affinity category>
medium

> <OPTIBRIUM.hERG pIC50>
5.81388

> <OPTIBRIUM.2C9 pKi>
5.97686

> <OPTIBRIUM.BBB log([brain]:[blood])>
-0.733853

> <OPTIBRIUM.logS @ pH7.4>
-0.435268

$$$$
Compound 84_1_2
haSeeSAR  07122111353D 1   1.00000     0.00000     0
SeeSAR 11.0.2 hazemaj
 40 43  0  0  0  0            999 V2000
    7.7638    5.1302   22.5151 Cl  0  0  0  0  0  0  0  0  0  0  0  0
    7.3804    3.5771   23.2955 C   0  0  0  0  0  0  0  0  0  0  0  0
    6.1353    3.3935   23.8868 C   0  0  0  0  0  0  0  0  0  0  0  0
    8.3369    2.5680   23.3004 C   0  0  0  0  0  0  0  0  0  0  0  0
    5.8552    2.1725   24.4914 C   0  0  0  0  0  0  0  0  0  0  0  0
    8.0312    1.3565   23.9118 C   0  0  0  0  0  0  0  0  0  0  0  0
    4.2651    1.9254   25.2519 Cl  0  0  0  0  0  0  0  0  0  0  0  0
    6.7936    1.1465   24.5111 C   0  0  0  0  0  0  0  0  0  0  0  0
    9.0630    0.2386   23.9287 C   0  0  1  0  0  0  0  0  0  0  0  0
    9.3802   -0.2940   22.5619 C   0  0  2  0  0  0  0  0  0  0  0  0
   10.3434    0.6279   23.2483 C   0  0  0  0  0  0  0  0  0  0  0  0
    8.6032    0.2806   21.3893 C   0  0  0  0  0  0  0  0  0  0  0  0
    9.7868   -1.7565   22.5079 C   0  0  0  0  0  0  0  0  0  0  0  0
    9.0279    1.2722   20.7962 O   0  0  0  0  0  0  0  0  0  0  0  0
    7.4703   -0.2849   21.0057 N   0  0  0  0  0  0  0  0  0  0  0  0
    6.7542    0.2447   19.9249 C   0  0  0  0  0  0  0  0  0  0  0  0
    5.5545    0.9358   20.0800 C   0  0  0  0  0  0  0  0  0  0  0  0
    7.2645    0.0723   18.6423 C   0  0  0  0  0  0  0  0  0  0  0  0
    4.8984    1.4336   18.9603 C   0  0  0  0  0  0  0  0  0  0  0  0
    4.9764    1.1505   21.3281 C   0  0  0  0  0  0  0  0  0  0  0  0
    6.6148    0.5605   17.5752 N   0  0  0  0  0  0  0  0  0  0  0  0
    5.4588    1.2278   17.7039 C   0  0  0  0  0  0  0  0  0  0  0  0
    3.7010    2.1226   19.1258 C   0  0  0  0  0  0  0  0  0  0  0  0
    3.7771    1.8446   21.4523 C   0  0  0  0  0  0  0  0  0  0  0  0
    3.1776    2.3086   20.3466 N   0  0  0  0  0  0  0  0  0  0  0  0
    5.4541    4.1254   23.8777 H   0  0  0  0  0  0  0  0  0  0  0  0
    9.2292    2.7107   22.8719 H   0  0  0  0  0  0  0  0  0  0  0  0
    6.5824    0.2725   24.9487 H   0  0  0  0  0  0  0  0  0  0  0  0
    9.0969   -0.3811   24.7128 H   0  0  0  0  0  0  0  0  0  0  0  0
   11.2164    0.2768   23.5871 H   0  0  0  0  0  0  0  0  0  0  0  0
   10.4674    1.5617   22.9126 H   0  0  0  0  0  0  0  0  0  0  0  0
    9.9765   -2.0151   21.5607 H   0  0  0  0  0  0  0  0  0  0  0  0
   10.6078   -1.8949   23.0620 H   0  0  0  0  0  0  0  0  0  0  0  0
    9.0441   -2.3224   22.8656 H   0  0  0  0  0  0  0  0  0  0  0  0
    7.1254   -1.0904   21.4875 H   0  0  0  0  0  0  0  0  0  0  0  0
    8.1249   -0.4209   18.5145 H   0  0  0  0  0  0  0  0  0  0  0  0
    5.4299    0.8004   22.1477 H   0  0  0  0  0  0  0  0  0  0  0  0
    4.9960    1.5802   16.8904 H   0  0  0  0  0  0  0  0  0  0  0  0
    3.2244    2.4837   18.3243 H   0  0  0  0  0  0  0  0  0  0  0  0
    3.3686    1.9951   22.3525 H   0  0  0  0  0  0  0  0  0  0  0  0
  1  2  1  0  0  0  0
  2  3  2  0  0  0  0
  2  4  1  0  0  0  0
  3  5  1  0  0  0  0
  4  6  2  0  0  0  0
  5  7  1  0  0  0  0
  5  8  2  0  0  0  0
  6  9  1  0  0  0  0
  9 10  1  0  0  0  0
  9 11  1  0  0  0  0
 10 12  1  0  0  0  0
 10 13  1  0  0  0  0
 12 14  2  0  0  0  0
 12 15  1  0  0  0  0
 15 16  1  0  0  0  0
 16 17  1  0  0  0  0
 16 18  2  0  0  0  0
 17 19  1  0  0  0  0
 17 20  2  0  0  0  0
 18 21  1  0  0  0  0
 19 22  1  0  0  0  0
 19 23  2  0  0  0  0
 20 24  1  0  0  0  0
 23 25  1  0  0  0  0
  6  8  1  0  0  0  0
 10 11  1  0  0  0  0
 21 22  2  0  0  0  0
 24 25  2  0  0  0  0
  3 26  1  0  0  0  0
  4 27  1  0  0  0  0
  8 28  1  0  0  0  0
  9 29  1  0  0  0  0
 11 30  1  0  0  0  0
 11 31  1  0  0  0  0
 13 32  1  0  0  0  0
 13 33  1  0  0  0  0
 13 34  1  0  0  0  0
 15 35  1  0  0  0  0
 18 36  1  0  0  0  0
 20 37  1  0  0  0  0
 22 38  1  0  0  0  0
 23 39  1  0  0  0  0
 24 40  1  0  0  0  0
M  END
> <BIOSOLVEIT.HYDE_ESTIMATED_AFFINITY_LOWER_BOUNDARY [nM]>
13406.056801

> <BIOSOLVEIT.HYDE_ESTIMATED_AFFINITY_UPPER_BOUNDARY [nM]>
1331971.006044

> <BIOSOLVEIT.HYDE_LIGAND_EFFICIENCY range: ++, +, 0, -, -->
-

> <BIOSOLVEIT.HYDE_LIGAND_LIPOPHILIC_EFFICIENCY range: ++, +, 0, -, -->
--

> <BIOSOLVEIT.INTER_CLASH range: red, yellow, green>
green

> <BIOSOLVEIT.INTRA_CLASH range: red, yellow, green>
yellow

> <BIOSOLVEIT.LOGP>
5.0689

> <BIOSOLVEIT.MOLECULAR WEIGHT>
372.254

> <BIOSOLVEIT.MOLECULE_CHECKSUM>
LTIyLjExMzQ7MC44ODQ1MzY=

> <BIOSOLVEIT.TORSION_QUALITY range: red, yellow, green, not rotatable>
green

> <BIOSOLVEIT.TPSA>
54.88

> <BIOSOLVEIT.SEESAR_FAVORITE>
favorite

> <smc_score>
0.563

> <QED_score>
0.699

> <distance>
0.509

> <SimilarityPheSA_1>
0.722

> <Smiles>
CC1(C(=O)Nc2cncc3cnccc23)CC1c1cc(Cl)cc(Cl)c1

> <Similarity_SkelSpheres>
0.792

> <Cluster No>
37.0

> <QueryID>
MAT-POS-f7918075-5

> <SimilarityPheSA>
0.7221

> <Postera series>
3-aminopyridine-like

> <PDB_code>
Mpro-x11499

> <Approach>
DGM_focussed_RL

> <ID>
20210618_83

> <SimilarityPheSA_2>
0.82

> <OPTIBRIUM.logD>
3.88418

> <OPTIBRIUM.BBB category>
+

> <OPTIBRIUM.logP>
3.88418

> <OPTIBRIUM.P-gp category>
no

> <OPTIBRIUM.logS>
-0.282066

> <OPTIBRIUM.HIA category>
+

> <OPTIBRIUM.PPB90 category>
high

> <OPTIBRIUM.2D6 affinity category>
high

> <OPTIBRIUM.hERG pIC50>
4.69624

> <OPTIBRIUM.2C9 pKi>
5.76637

> <OPTIBRIUM.BBB log([brain]:[blood])>
-0.236534

> <OPTIBRIUM.logS @ pH7.4>
-0.282066

$$$$
Compound 84_1_1
haSeeSAR  07122111353D 1   1.00000     0.00000     0
SeeSAR 11.0.2 hazemaj
 40 43  0  0  0  0            999 V2000
    7.7636    5.1300   22.5149 Cl  0  0  0  0  0  0  0  0  0  0  0  0
    7.3803    3.5769   23.2954 C   0  0  0  0  0  0  0  0  0  0  0  0
    6.1352    3.3933   23.8868 C   0  0  0  0  0  0  0  0  0  0  0  0
    8.3369    2.5679   23.3004 C   0  0  0  0  0  0  0  0  0  0  0  0
    5.8551    2.1724   24.4914 C   0  0  0  0  0  0  0  0  0  0  0  0
    8.0312    1.3565   23.9119 C   0  0  0  0  0  0  0  0  0  0  0  0
    4.2652    1.9253   25.2520 Cl  0  0  0  0  0  0  0  0  0  0  0  0
    6.7937    1.1464   24.5112 C   0  0  0  0  0  0  0  0  0  0  0  0
    9.0630    0.2385   23.9287 C   0  0  1  0  0  0  0  0  0  0  0  0
    9.3803   -0.2940   22.5619 C   0  0  2  0  0  0  0  0  0  0  0  0
   10.3435    0.6279   23.2484 C   0  0  0  0  0  0  0  0  0  0  0  0
    8.6033    0.2805   21.3893 C   0  0  0  0  0  0  0  0  0  0  0  0
    9.7870   -1.7566   22.5080 C   0  0  0  0  0  0  0  0  0  0  0  0
    9.0280    1.2721   20.7961 O   0  0  0  0  0  0  0  0  0  0  0  0
    7.4704   -0.2849   21.0058 N   0  0  0  0  0  0  0  0  0  0  0  0
    6.7542    0.2447   19.9250 C   0  0  0  0  0  0  0  0  0  0  0  0
    5.5546    0.9358   20.0801 C   0  0  0  0  0  0  0  0  0  0  0  0
    7.2646    0.0723   18.6423 C   0  0  0  0  0  0  0  0  0  0  0  0
    4.8985    1.4336   18.9604 C   0  0  0  0  0  0  0  0  0  0  0  0
    4.9763    1.1504   21.3281 C   0  0  0  0  0  0  0  0  0  0  0  0
    6.6149    0.5605   17.5753 N   0  0  0  0  0  0  0  0  0  0  0  0
    5.4589    1.2278   17.7040 C   0  0  0  0  0  0  0  0  0  0  0  0
    3.7010    2.1226   19.1258 C   0  0  0  0  0  0  0  0  0  0  0  0
    3.7771    1.8445   21.4523 C   0  0  0  0  0  0  0  0  0  0  0  0
    3.1777    2.3085   20.3466 N   0  0  0  0  0  0  0  0  0  0  0  0
    5.4540    4.1253   23.8776 H   0  0  0  0  0  0  0  0  0  0  0  0
    9.2290    2.7106   22.8718 H   0  0  0  0  0  0  0  0  0  0  0  0
    6.5824    0.2724   24.9488 H   0  0  0  0  0  0  0  0  0  0  0  0
    9.0969   -0.3811   24.7128 H   0  0  0  0  0  0  0  0  0  0  0  0
   11.2164    0.2769   23.5871 H   0  0  0  0  0  0  0  0  0  0  0  0
   10.4674    1.5616   22.9127 H   0  0  0  0  0  0  0  0  0  0  0  0
    9.9766   -2.0151   21.5608 H   0  0  0  0  0  0  0  0  0  0  0  0
   10.6079   -1.8949   23.0620 H   0  0  0  0  0  0  0  0  0  0  0  0
    9.0442   -2.3226   22.8656 H   0  0  0  0  0  0  0  0  0  0  0  0
    7.1254   -1.0904   21.4876 H   0  0  0  0  0  0  0  0  0  0  0  0
    8.1250   -0.4208   18.5145 H   0  0  0  0  0  0  0  0  0  0  0  0
    5.4299    0.8004   22.1477 H   0  0  0  0  0  0  0  0  0  0  0  0
    4.9961    1.5802   16.8905 H   0  0  0  0  0  0  0  0  0  0  0  0
    3.2245    2.4837   18.3243 H   0  0  0  0  0  0  0  0  0  0  0  0
    3.3685    1.9950   22.3525 H   0  0  0  0  0  0  0  0  0  0  0  0
  1  2  1  0  0  0  0
  2  3  2  0  0  0  0
  2  4  1  0  0  0  0
  3  5  1  0  0  0  0
  4  6  2  0  0  0  0
  5  7  1  0  0  0  0
  5  8  2  0  0  0  0
  6  9  1  0  0  0  0
  9 10  1  0  0  0  0
  9 11  1  0  0  0  0
 10 12  1  0  0  0  0
 10 13  1  0  0  0  0
 12 14  2  0  0  0  0
 12 15  1  0  0  0  0
 15 16  1  0  0  0  0
 16 17  1  0  0  0  0
 16 18  2  0  0  0  0
 17 19  1  0  0  0  0
 17 20  2  0  0  0  0
 18 21  1  0  0  0  0
 19 22  1  0  0  0  0
 19 23  2  0  0  0  0
 20 24  1  0  0  0  0
 23 25  1  0  0  0  0
  6  8  1  0  0  0  0
 10 11  1  0  0  0  0
 21 22  2  0  0  0  0
 24 25  2  0  0  0  0
  3 26  1  0  0  0  0
  4 27  1  0  0  0  0
  8 28  1  0  0  0  0
  9 29  1  0  0  0  0
 11 30  1  0  0  0  0
 11 31  1  0  0  0  0
 13 32  1  0  0  0  0
 13 33  1  0  0  0  0
 13 34  1  0  0  0  0
 15 35  1  0  0  0  0
 18 36  1  0  0  0  0
 20 37  1  0  0  0  0
 22 38  1  0  0  0  0
 23 39  1  0  0  0  0
 24 40  1  0  0  0  0
M  END
> <BIOSOLVEIT.HYDE_ESTIMATED_AFFINITY_LOWER_BOUNDARY [nM]>
13408.922887

> <BIOSOLVEIT.HYDE_ESTIMATED_AFFINITY_UPPER_BOUNDARY [nM]>
1332255.768693

> <BIOSOLVEIT.HYDE_LIGAND_EFFICIENCY range: ++, +, 0, -, -->
-

> <BIOSOLVEIT.HYDE_LIGAND_LIPOPHILIC_EFFICIENCY range: ++, +, 0, -, -->
--

> <BIOSOLVEIT.INTER_CLASH range: red, yellow, green>
green

> <BIOSOLVEIT.INTRA_CLASH range: red, yellow, green>
yellow

> <BIOSOLVEIT.LOGP>
5.0689

> <BIOSOLVEIT.MOLECULAR WEIGHT>
372.254

> <BIOSOLVEIT.MOLECULE_CHECKSUM>
LTIyLjExMjk7MC44ODQ1MTU=

> <BIOSOLVEIT.TORSION_QUALITY range: red, yellow, green, not rotatable>
green

> <BIOSOLVEIT.TPSA>
54.88

> <BIOSOLVEIT.SEESAR_FAVORITE>
favorite

> <smc_score>
0.563

> <QED_score>
0.699

> <distance>
0.509

> <SimilarityPheSA_1>
0.722

> <Smiles>
CC1(C(=O)Nc2cncc3cnccc23)CC1c1cc(Cl)cc(Cl)c1

> <Similarity_SkelSpheres>
0.792

> <Cluster No>
37.0

> <QueryID>
MAT-POS-f7918075-5

> <SimilarityPheSA>
0.7221

> <Postera series>
3-aminopyridine-like

> <PDB_code>
Mpro-x11499

> <Approach>
DGM_focussed_RL

> <ID>
20210618_83

> <SimilarityPheSA_2>
0.82

> <OPTIBRIUM.logD>
3.88418

> <OPTIBRIUM.BBB category>
+

> <OPTIBRIUM.logP>
3.88418

> <OPTIBRIUM.P-gp category>
no

> <OPTIBRIUM.logS>
-0.282066

> <OPTIBRIUM.HIA category>
+

> <OPTIBRIUM.PPB90 category>
high

> <OPTIBRIUM.2D6 affinity category>
high

> <OPTIBRIUM.hERG pIC50>
4.69624

> <OPTIBRIUM.2C9 pKi>
5.76637

> <OPTIBRIUM.BBB log([brain]:[blood])>
-0.236534

> <OPTIBRIUM.logS @ pH7.4>
-0.282066

$$$$
Compound 703_1_2
haSeeSAR  07122111353D 1   1.00000     0.00000     0
SeeSAR 11.0.2 hazemaj
 36 38  0  0  0  0            999 V2000
   12.9704   -1.8415   21.7107 Cl  0  0  0  0  0  0  0  0  0  0  0  0
   11.7842   -0.5903   22.1545 C   0  0  0  0  0  0  0  0  0  0  0  0
   12.2157    0.6195   22.6878 C   0  0  0  0  0  0  0  0  0  0  0  0
   10.4293   -0.8343   21.9611 C   0  0  0  0  0  0  0  0  0  0  0  0
   13.9559    0.9066   22.9262 Cl  0  0  0  0  0  0  0  0  0  0  0  0
   11.2973    1.6047   23.0365 C   0  0  0  0  0  0  0  0  0  0  0  0
    9.5160    0.1535   22.3117 C   0  0  0  0  0  0  0  0  0  0  0  0
    9.9404    1.3653   22.8462 C   0  0  0  0  0  0  0  0  0  0  0  0
    8.0311   -0.0959   22.1069 C   0  0  1  0  0  0  0  0  0  0  0  0
    7.7384   -0.1397   20.6154 C   0  0  0  0  0  0  0  0  0  0  0  0
    7.5924   -1.3640   22.8178 C   0  0  0  0  0  0  0  0  0  0  0  0
    8.3276    0.6247   19.8706 O   0  0  0  0  0  0  0  0  0  0  0  0
    6.8001   -1.0605   20.1199 N   0  0  0  0  0  0  0  0  0  0  0  0
    6.1376   -1.6055   22.4526 C   0  0  0  0  0  0  0  0  0  0  0  0
    6.1170   -2.0286   20.9955 C   0  0  0  0  0  0  0  0  0  0  0  0
    6.4895   -1.0825   18.6829 C   0  0  0  0  0  0  0  0  0  0  0  0
    5.8749    0.2486   18.2763 C   0  0  0  0  0  0  0  0  0  0  0  0
    6.1459    0.9280   17.1245 N   0  0  0  0  0  0  0  0  0  0  0  0
    4.9692    0.9525   19.0101 C   0  0  0  0  0  0  0  0  0  0  0  0
    5.4261    2.0278   17.1362 C   0  0  0  0  0  0  0  0  0  0  0  0
    4.6887    2.0756   18.2910 N   0  0  0  0  0  0  0  0  0  0  0  0
   10.1177   -1.7036   21.5772 H   0  0  0  0  0  0  0  0  0  0  0  0
   11.6090    2.4744   23.4193 H   0  0  0  0  0  0  0  0  0  0  0  0
    9.2699    2.0647   23.0936 H   0  0  0  0  0  0  0  0  0  0  0  0
    7.5280    0.6731   22.5013 H   0  0  0  0  0  0  0  0  0  0  0  0
    7.6826   -1.2505   23.8072 H   0  0  0  0  0  0  0  0  0  0  0  0
    8.1532   -2.1359   22.5182 H   0  0  0  0  0  0  0  0  0  0  0  0
    5.6079   -0.7662   22.5751 H   0  0  0  0  0  0  0  0  0  0  0  0
    5.7538   -2.3288   23.0267 H   0  0  0  0  0  0  0  0  0  0  0  0
    6.5727   -2.9147   20.9119 H   0  0  0  0  0  0  0  0  0  0  0  0
    5.1656   -2.1139   20.6994 H   0  0  0  0  0  0  0  0  0  0  0  0
    5.8420   -1.8205   18.4931 H   0  0  0  0  0  0  0  0  0  0  0  0
    7.3299   -1.2344   18.1625 H   0  0  0  0  0  0  0  0  0  0  0  0
    4.5867    0.6967   19.8980 H   0  0  0  0  0  0  0  0  0  0  0  0
    5.4176    2.7210   16.4156 H   0  0  0  0  0  0  0  0  0  0  0  0
    6.7768    0.6416   16.4034 H   0  0  0  0  0  0  0  0  0  0  0  0
  1  2  1  0  0  0  0
  2  3  2  0  0  0  0
  2  4  1  0  0  0  0
  3  5  1  0  0  0  0
  3  6  1  0  0  0  0
  4  7  2  0  0  0  0
  6  8  2  0  0  0  0
  7  9  1  0  0  0  0
  9 10  1  0  0  0  0
  9 11  1  0  0  0  0
 10 12  2  0  0  0  0
 10 13  1  0  0  0  0
 11 14  1  0  0  0  0
 13 15  1  0  0  0  0
 13 16  1  0  0  0  0
 16 17  1  0  0  0  0
 17 18  1  0  0  0  0
 17 19  2  0  0  0  0
 18 20  1  0  0  0  0
 19 21  1  0  0  0  0
  7  8  1  0  0  0  0
 14 15  1  0  0  0  0
 20 21  2  0  0  0  0
  4 22  1  0  0  0  0
  6 23  1  0  0  0  0
  8 24  1  0  0  0  0
  9 25  1  0  0  0  0
 11 26  1  0  0  0  0
 11 27  1  0  0  0  0
 14 28  1  0  0  0  0
 14 29  1  0  0  0  0
 15 30  1  0  0  0  0
 15 31  1  0  0  0  0
 16 32  1  0  0  0  0
 16 33  1  0  0  0  0
 19 34  1  0  0  0  0
 20 35  1  0  0  0  0
 18 36  1  0  0  0  0
M  END
> <BIOSOLVEIT.HYDE_ESTIMATED_AFFINITY_LOWER_BOUNDARY [nM]>
13870.390378

> <BIOSOLVEIT.HYDE_ESTIMATED_AFFINITY_UPPER_BOUNDARY [nM]>
1378105.292266

> <BIOSOLVEIT.HYDE_LIGAND_EFFICIENCY range: ++, +, 0, -, -->
-

> <BIOSOLVEIT.HYDE_LIGAND_LIPOPHILIC_EFFICIENCY range: ++, +, 0, -, -->
--

> <BIOSOLVEIT.INTER_CLASH range: red, yellow, green>
yellow

> <BIOSOLVEIT.INTRA_CLASH range: red, yellow, green>
green

> <BIOSOLVEIT.LOGP>
3.6227

> <BIOSOLVEIT.MOLECULAR WEIGHT>
324.21

> <BIOSOLVEIT.MOLECULE_CHECKSUM>
LTIyLjAyOTsxLjA0OQ==

> <BIOSOLVEIT.TORSION_QUALITY range: red, yellow, green, not rotatable>
green

> <BIOSOLVEIT.TPSA>
48.99

> <BIOSOLVEIT.SEESAR_FAVORITE>
favorite

> <smc_score>
0.563

> <QED_score>
0.937

> <distance>
0.578

> <SimilarityPheSA_1>
0.695

> <Smiles>
O=C1C(c2ccc(Cl)c(Cl)c2)CCCN1Cc1c[nH]cn1

> <Similarity_SkelSpheres>
0.727

> <Cluster No>
395.0

> <QueryID>
JAN-GHE-5a013bed-2

> <SimilarityPheSA>
0.6945

> <Postera series>
3-aminopyridine-like

> <PDB_code>
Mpro-x10466

> <Approach>
DGM_focussed_RL

> <ID>
20210618_702

> <SimilarityPheSA_2>
0.722

> <OPTIBRIUM.logD>
3.40807

> <OPTIBRIUM.BBB category>
+

> <OPTIBRIUM.logP>
3.40807

> <OPTIBRIUM.P-gp category>
no

> <OPTIBRIUM.logS>
1.73019

> <OPTIBRIUM.HIA category>
+

> <OPTIBRIUM.PPB90 category>
high

> <OPTIBRIUM.2D6 affinity category>
high

> <OPTIBRIUM.hERG pIC50>
4.59893

> <OPTIBRIUM.2C9 pKi>
5.13014

> <OPTIBRIUM.BBB log([brain]:[blood])>
-0.47382

> <OPTIBRIUM.logS @ pH7.4>
1.73019

$$$$
Compound 706_1_006
haSeeSAR  07122111353D 1   1.00000     0.00000     0
SeeSAR 11.0.2 hazemaj
 43 46  0  0  0  0            999 V2000
    5.4428    1.6826   29.5111 Cl  0  0  0  0  0  0  0  0  0  0  0  0
    6.1463    2.1226   27.9358 C   0  0  0  0  0  0  0  0  0  0  0  0
    5.9985    3.4152   27.4447 C   0  0  0  0  0  0  0  0  0  0  0  0
    6.8426    1.1649   27.2075 C   0  0  0  0  0  0  0  0  0  0  0  0
    5.1015    4.6224   28.3965 Cl  0  0  0  0  0  0  0  0  0  0  0  0
    6.5456    3.7701   26.2156 C   0  0  0  0  0  0  0  0  0  0  0  0
    7.3868    1.5250   25.9798 C   0  0  0  0  0  0  0  0  0  0  0  0
    7.2423    2.8155   25.4821 C   0  0  0  0  0  0  0  0  0  0  0  0
    8.1520    0.4907   25.1697 C   0  0  0  0  0  0  0  0  0  0  0  0
    7.2562   -0.0554   24.0699 C   0  0  0  0  0  0  0  0  0  0  0  0
    8.0548   -0.9992   23.1886 C   0  0  1  0  0  0  0  0  0  0  0  0
    7.3691   -1.3105   21.8748 C   0  0  0  0  0  0  0  0  0  0  0  0
    9.3284   -0.3767   22.6642 C   0  0  0  0  0  0  0  0  0  0  0  0
    7.6642   -0.1476   21.0320 N   0  0  0  0  0  0  0  0  0  0  0  0
    8.8411    0.4410   21.4841 C   0  0  0  0  0  0  0  0  0  0  0  0
    6.8859    0.2980   19.9559 C   0  0  0  0  0  0  0  0  0  0  0  0
    9.3789    1.4325   21.0238 O   0  0  0  0  0  0  0  0  0  0  0  0
    5.6713    0.9581   20.1292 C   0  0  0  0  0  0  0  0  0  0  0  0
    7.3515    0.0682   18.6653 C   0  0  0  0  0  0  0  0  0  0  0  0
    4.9480    1.3748   19.0178 C   0  0  0  0  0  0  0  0  0  0  0  0
    5.1385    1.2247   21.3871 C   0  0  0  0  0  0  0  0  0  0  0  0
    6.6383    0.4782   17.6057 N   0  0  0  0  0  0  0  0  0  0  0  0
    5.4671    1.1148   17.7536 C   0  0  0  0  0  0  0  0  0  0  0  0
    3.7364    2.0334   19.2021 C   0  0  0  0  0  0  0  0  0  0  0  0
    3.9230    1.8859   21.5325 C   0  0  0  0  0  0  0  0  0  0  0  0
    3.2580    2.2712   20.4327 N   0  0  0  0  0  0  0  0  0  0  0  0
    6.9500    0.2352   27.5597 H   0  0  0  0  0  0  0  0  0  0  0  0
    6.4392    4.7001   25.8639 H   0  0  0  0  0  0  0  0  0  0  0  0
    7.6395    3.0573   24.5968 H   0  0  0  0  0  0  0  0  0  0  0  0
    8.4376   -0.2572   25.7690 H   0  0  0  0  0  0  0  0  0  0  0  0
    8.9588    0.9175   24.7614 H   0  0  0  0  0  0  0  0  0  0  0  0
    6.9076    0.7017   23.5172 H   0  0  0  0  0  0  0  0  0  0  0  0
    6.4895   -0.5500   24.4791 H   0  0  0  0  0  0  0  0  0  0  0  0
    8.2594   -1.8446   23.6820 H   0  0  0  0  0  0  0  0  0  0  0  0
    6.3829   -1.4133   22.0049 H   0  0  0  0  0  0  0  0  0  0  0  0
    7.7407   -2.1458   21.4697 H   0  0  0  0  0  0  0  0  0  0  0  0
    9.9787   -1.0781   22.3725 H   0  0  0  0  0  0  0  0  0  0  0  0
    9.7553    0.2068   23.3551 H   0  0  0  0  0  0  0  0  0  0  0  0
    8.2217   -0.4047   18.5268 H   0  0  0  0  0  0  0  0  0  0  0  0
    5.6394    0.9352   22.2028 H   0  0  0  0  0  0  0  0  0  0  0  0
    4.9596    1.4069   16.9430 H   0  0  0  0  0  0  0  0  0  0  0  0
    3.2139    2.3345   18.4044 H   0  0  0  0  0  0  0  0  0  0  0  0
    3.5511    2.0710   22.4421 H   0  0  0  0  0  0  0  0  0  0  0  0
  1  2  1  0  0  0  0
  2  3  2  0  0  0  0
  2  4  1  0  0  0  0
  3  5  1  0  0  0  0
  3  6  1  0  0  0  0
  4  7  2  0  0  0  0
  6  8  2  0  0  0  0
  7  9  1  0  0  0  0
  9 10  1  0  0  0  0
 10 11  1  0  0  0  0
 11 12  1  0  0  0  0
 11 13  1  0  0  0  0
 12 14  1  0  0  0  0
 13 15  1  0  0  0  0
 14 16  1  0  0  0  0
 15 17  2  0  0  0  0
 16 18  1  0  0  0  0
 16 19  2  0  0  0  0
 18 20  1  0  0  0  0
 18 21  2  0  0  0  0
 19 22  1  0  0  0  0
 20 23  1  0  0  0  0
 20 24  2  0  0  0  0
 21 25  1  0  0  0  0
 24 26  1  0  0  0  0
  7  8  1  0  0  0  0
 14 15  1  0  0  0  0
 22 23  2  0  0  0  0
 25 26  2  0  0  0  0
  4 27  1  0  0  0  0
  6 28  1  0  0  0  0
  8 29  1  0  0  0  0
  9 30  1  0  0  0  0
  9 31  1  0  0  0  0
 10 32  1  0  0  0  0
 10 33  1  0  0  0  0
 11 34  1  0  0  0  0
 12 35  1  0  0  0  0
 12 36  1  0  0  0  0
 13 37  1  0  0  0  0
 13 38  1  0  0  0  0
 19 39  1  0  0  0  0
 21 40  1  0  0  0  0
 23 41  1  0  0  0  0
 24 42  1  0  0  0  0
 25 43  1  0  0  0  0
M  END
> <BIOSOLVEIT.HYDE_ESTIMATED_AFFINITY_LOWER_BOUNDARY [nM]>
15731.858924

> <BIOSOLVEIT.HYDE_ESTIMATED_AFFINITY_UPPER_BOUNDARY [nM]>
1563053.198230

> <BIOSOLVEIT.HYDE_LIGAND_EFFICIENCY range: ++, +, 0, -, -->
--

> <BIOSOLVEIT.HYDE_LIGAND_LIPOPHILIC_EFFICIENCY range: ++, +, 0, -, -->
--

> <BIOSOLVEIT.INTER_CLASH range: red, yellow, green>
green

> <BIOSOLVEIT.INTRA_CLASH range: red, yellow, green>
green

> <BIOSOLVEIT.LOGP>
4.9223

> <BIOSOLVEIT.MOLECULAR WEIGHT>
386.28

> <BIOSOLVEIT.MOLECULE_CHECKSUM>
LTIxLjcxNjg7MC44MzUyNjI=

> <BIOSOLVEIT.TORSION_QUALITY range: red, yellow, green, not rotatable>
green

> <BIOSOLVEIT.TPSA>
46.09

> <BIOSOLVEIT.SEESAR_FAVORITE>
favorite

> <smc_score>
0.688

> <QED_score>
0.639

> <distance>
0.55

> <SimilarityPheSA_1>
0.685

> <Smiles>
O=C1CC(CCc2ccc(Cl)c(Cl)c2)CN1c1cncc2cnccc12

> <Similarity_SkelSpheres>
0.816

> <Cluster No>
398.0

> <QueryID>
MAT-POS-f7918075-5

> <SimilarityPheSA>
0.6847

> <Postera series>
3-aminopyridine-like

> <PDB_code>
Mpro-x11499

> <Approach>
DGM_focussed_RL

> <ID>
20210618_705

> <SimilarityPheSA_2>
0.865

> <OPTIBRIUM.logD>
3.79392

> <OPTIBRIUM.BBB category>
+

> <OPTIBRIUM.logP>
3.79392

> <OPTIBRIUM.P-gp category>
no

> <OPTIBRIUM.logS>
0.168857

> <OPTIBRIUM.HIA category>
+

> <OPTIBRIUM.PPB90 category>
high

> <OPTIBRIUM.2D6 affinity category>
medium

> <OPTIBRIUM.hERG pIC50>
5.20949

> <OPTIBRIUM.2C9 pKi>
5.53082

> <OPTIBRIUM.BBB log([brain]:[blood])>
-0.336391

> <OPTIBRIUM.logS @ pH7.4>
0.168857

$$$$
Compound 706_1_004
haSeeSAR  07122111353D 1   1.00000     0.00000     0
SeeSAR 11.0.2 hazemaj
 43 46  0  0  0  0            999 V2000
    5.4431    1.6824   29.5102 Cl  0  0  0  0  0  0  0  0  0  0  0  0
    6.1461    2.1228   27.9350 C   0  0  0  0  0  0  0  0  0  0  0  0
    5.9978    3.4155   27.4440 C   0  0  0  0  0  0  0  0  0  0  0  0
    6.8428    1.1655   27.2064 C   0  0  0  0  0  0  0  0  0  0  0  0
    5.1004    4.6221   28.3961 Cl  0  0  0  0  0  0  0  0  0  0  0  0
    6.5446    3.7707   26.2149 C   0  0  0  0  0  0  0  0  0  0  0  0
    7.3866    1.5259   25.9786 C   0  0  0  0  0  0  0  0  0  0  0  0
    7.2416    2.8164   25.4813 C   0  0  0  0  0  0  0  0  0  0  0  0
    8.1522    0.4920   25.1684 C   0  0  0  0  0  0  0  0  0  0  0  0
    7.2559   -0.0556   24.0698 C   0  0  0  0  0  0  0  0  0  0  0  0
    8.0544   -0.9994   23.1885 C   0  0  1  0  0  0  0  0  0  0  0  0
    7.3687   -1.3106   21.8747 C   0  0  0  0  0  0  0  0  0  0  0  0
    9.3281   -0.3769   22.6641 C   0  0  0  0  0  0  0  0  0  0  0  0
    7.6640   -0.1477   21.0319 N   0  0  0  0  0  0  0  0  0  0  0  0
    8.8409    0.4408   21.4841 C   0  0  0  0  0  0  0  0  0  0  0  0
    6.8857    0.2979   19.9558 C   0  0  0  0  0  0  0  0  0  0  0  0
    9.3787    1.4323   21.0238 O   0  0  0  0  0  0  0  0  0  0  0  0
    5.6711    0.9581   20.1291 C   0  0  0  0  0  0  0  0  0  0  0  0
    7.3514    0.0682   18.6652 C   0  0  0  0  0  0  0  0  0  0  0  0
    4.9478    1.3748   19.0177 C   0  0  0  0  0  0  0  0  0  0  0  0
    5.1382    1.2246   21.3870 C   0  0  0  0  0  0  0  0  0  0  0  0
    6.6382    0.4784   17.6056 N   0  0  0  0  0  0  0  0  0  0  0  0
    5.4670    1.1149   17.7535 C   0  0  0  0  0  0  0  0  0  0  0  0
    3.7362    2.0335   19.2019 C   0  0  0  0  0  0  0  0  0  0  0  0
    3.9228    1.8858   21.5324 C   0  0  0  0  0  0  0  0  0  0  0  0
    3.2578    2.2711   20.4325 N   0  0  0  0  0  0  0  0  0  0  0  0
    6.9507    0.2358   27.5584 H   0  0  0  0  0  0  0  0  0  0  0  0
    6.4377    4.7007   25.8633 H   0  0  0  0  0  0  0  0  0  0  0  0
    7.6385    3.0585   24.5958 H   0  0  0  0  0  0  0  0  0  0  0  0
    8.4393   -0.2552   25.7677 H   0  0  0  0  0  0  0  0  0  0  0  0
    8.9582    0.9195   24.7590 H   0  0  0  0  0  0  0  0  0  0  0  0
    6.9062    0.7008   23.5169 H   0  0  0  0  0  0  0  0  0  0  0  0
    6.4900   -0.5506   24.4800 H   0  0  0  0  0  0  0  0  0  0  0  0
    8.2590   -1.8449   23.6819 H   0  0  0  0  0  0  0  0  0  0  0  0
    6.3825   -1.4134   22.0047 H   0  0  0  0  0  0  0  0  0  0  0  0
    7.7404   -2.1460   21.4695 H   0  0  0  0  0  0  0  0  0  0  0  0
    9.9783   -1.0784   22.3725 H   0  0  0  0  0  0  0  0  0  0  0  0
    9.7550    0.2065   23.3551 H   0  0  0  0  0  0  0  0  0  0  0  0
    8.2216   -0.4046   18.5267 H   0  0  0  0  0  0  0  0  0  0  0  0
    5.6391    0.9350   22.2027 H   0  0  0  0  0  0  0  0  0  0  0  0
    4.9595    1.4071   16.9429 H   0  0  0  0  0  0  0  0  0  0  0  0
    3.2138    2.3346   18.4043 H   0  0  0  0  0  0  0  0  0  0  0  0
    3.5508    2.0708   22.4419 H   0  0  0  0  0  0  0  0  0  0  0  0
  1  2  1  0  0  0  0
  2  3  2  0  0  0  0
  2  4  1  0  0  0  0
  3  5  1  0  0  0  0
  3  6  1  0  0  0  0
  4  7  2  0  0  0  0
  6  8  2  0  0  0  0
  7  9  1  0  0  0  0
  9 10  1  0  0  0  0
 10 11  1  0  0  0  0
 11 12  1  0  0  0  0
 11 13  1  0  0  0  0
 12 14  1  0  0  0  0
 13 15  1  0  0  0  0
 14 16  1  0  0  0  0
 15 17  2  0  0  0  0
 16 18  1  0  0  0  0
 16 19  2  0  0  0  0
 18 20  1  0  0  0  0
 18 21  2  0  0  0  0
 19 22  1  0  0  0  0
 20 23  1  0  0  0  0
 20 24  2  0  0  0  0
 21 25  1  0  0  0  0
 24 26  1  0  0  0  0
  7  8  1  0  0  0  0
 14 15  1  0  0  0  0
 22 23  2  0  0  0  0
 25 26  2  0  0  0  0
  4 27  1  0  0  0  0
  6 28  1  0  0  0  0
  8 29  1  0  0  0  0
  9 30  1  0  0  0  0
  9 31  1  0  0  0  0
 10 32  1  0  0  0  0
 10 33  1  0  0  0  0
 11 34  1  0  0  0  0
 12 35  1  0  0  0  0
 12 36  1  0  0  0  0
 13 37  1  0  0  0  0
 13 38  1  0  0  0  0
 19 39  1  0  0  0  0
 21 40  1  0  0  0  0
 23 41  1  0  0  0  0
 24 42  1  0  0  0  0
 25 43  1  0  0  0  0
M  END
> <BIOSOLVEIT.HYDE_ESTIMATED_AFFINITY_LOWER_BOUNDARY [nM]>
15736.281150

> <BIOSOLVEIT.HYDE_ESTIMATED_AFFINITY_UPPER_BOUNDARY [nM]>
1563492.572487

> <BIOSOLVEIT.HYDE_LIGAND_EFFICIENCY range: ++, +, 0, -, -->
--

> <BIOSOLVEIT.HYDE_LIGAND_LIPOPHILIC_EFFICIENCY range: ++, +, 0, -, -->
--

> <BIOSOLVEIT.INTER_CLASH range: red, yellow, green>
green

> <BIOSOLVEIT.INTRA_CLASH range: red, yellow, green>
green

> <BIOSOLVEIT.LOGP>
4.9223

> <BIOSOLVEIT.MOLECULAR WEIGHT>
386.28

> <BIOSOLVEIT.MOLECULE_CHECKSUM>
LTIxLjcxNjE7MC44MzUyMzY=

> <BIOSOLVEIT.TORSION_QUALITY range: red, yellow, green, not rotatable>
green

> <BIOSOLVEIT.TPSA>
46.09

> <BIOSOLVEIT.SEESAR_FAVORITE>
favorite

> <smc_score>
0.688

> <QED_score>
0.639

> <distance>
0.55

> <SimilarityPheSA_1>
0.685

> <Smiles>
O=C1CC(CCc2ccc(Cl)c(Cl)c2)CN1c1cncc2cnccc12

> <Similarity_SkelSpheres>
0.816

> <Cluster No>
398.0

> <QueryID>
MAT-POS-f7918075-5

> <SimilarityPheSA>
0.6847

> <Postera series>
3-aminopyridine-like

> <PDB_code>
Mpro-x11499

> <Approach>
DGM_focussed_RL

> <ID>
20210618_705

> <SimilarityPheSA_2>
0.865

> <OPTIBRIUM.logD>
3.79392

> <OPTIBRIUM.BBB category>
+

> <OPTIBRIUM.logP>
3.79392

> <OPTIBRIUM.P-gp category>
no

> <OPTIBRIUM.logS>
0.168857

> <OPTIBRIUM.HIA category>
+

> <OPTIBRIUM.PPB90 category>
high

> <OPTIBRIUM.2D6 affinity category>
medium

> <OPTIBRIUM.hERG pIC50>
5.20949

> <OPTIBRIUM.2C9 pKi>
5.53082

> <OPTIBRIUM.BBB log([brain]:[blood])>
-0.336391

> <OPTIBRIUM.logS @ pH7.4>
0.168857

$$$$
Compound 706_1_001
haSeeSAR  07122111353D 1   1.00000     0.00000     0
SeeSAR 11.0.2 hazemaj
 43 46  0  0  0  0            999 V2000
    6.3486    5.4068   25.6095 Cl  0  0  0  0  0  0  0  0  0  0  0  0
    6.5423    3.7496   26.2310 C   0  0  0  0  0  0  0  0  0  0  0  0
    5.9912    3.3983   27.4585 C   0  0  0  0  0  0  0  0  0  0  0  0
    7.2453    2.8157   25.4785 C   0  0  0  0  0  0  0  0  0  0  0  0
    5.0966    4.6131   28.4029 Cl  0  0  0  0  0  0  0  0  0  0  0  0
    6.1353    2.1057   27.9528 C   0  0  0  0  0  0  0  0  0  0  0  0
    7.3865    1.5258   25.9774 C   0  0  0  0  0  0  0  0  0  0  0  0
    6.8386    1.1677   27.2046 C   0  0  0  0  0  0  0  0  0  0  0  0
    8.1518    0.4913   25.1678 C   0  0  0  0  0  0  0  0  0  0  0  0
    7.2553   -0.0567   24.0694 C   0  0  0  0  0  0  0  0  0  0  0  0
    8.0538   -1.0004   23.1880 C   0  0  1  0  0  0  0  0  0  0  0  0
    7.3682   -1.3112   21.8741 C   0  0  0  0  0  0  0  0  0  0  0  0
    9.3276   -0.3778   22.6638 C   0  0  0  0  0  0  0  0  0  0  0  0
    7.6635   -0.1482   21.0316 N   0  0  0  0  0  0  0  0  0  0  0  0
    8.8404    0.4402   21.4839 C   0  0  0  0  0  0  0  0  0  0  0  0
    6.8853    0.2978   19.9555 C   0  0  0  0  0  0  0  0  0  0  0  0
    9.3783    1.4318   21.0239 O   0  0  0  0  0  0  0  0  0  0  0  0
    5.6708    0.9579   20.1289 C   0  0  0  0  0  0  0  0  0  0  0  0
    7.3510    0.0683   18.6649 C   0  0  0  0  0  0  0  0  0  0  0  0
    4.9475    1.3750   19.0176 C   0  0  0  0  0  0  0  0  0  0  0  0
    5.1379    1.2243   21.3868 C   0  0  0  0  0  0  0  0  0  0  0  0
    6.6379    0.4786   17.6054 N   0  0  0  0  0  0  0  0  0  0  0  0
    5.4668    1.1153   17.7533 C   0  0  0  0  0  0  0  0  0  0  0  0
    3.7360    2.0337   19.2019 C   0  0  0  0  0  0  0  0  0  0  0  0
    3.9225    1.8855   21.5323 C   0  0  0  0  0  0  0  0  0  0  0  0
    3.2576    2.2711   20.4325 N   0  0  0  0  0  0  0  0  0  0  0  0
    7.6416    3.0669   24.5953 H   0  0  0  0  0  0  0  0  0  0  0  0
    5.7380    1.8542   28.8354 H   0  0  0  0  0  0  0  0  0  0  0  0
    6.9504    0.2355   27.5490 H   0  0  0  0  0  0  0  0  0  0  0  0
    8.4387   -0.2557   25.7675 H   0  0  0  0  0  0  0  0  0  0  0  0
    8.9578    0.9183   24.7581 H   0  0  0  0  0  0  0  0  0  0  0  0
    6.9052    0.6996   23.5166 H   0  0  0  0  0  0  0  0  0  0  0  0
    6.4896   -0.5518   24.4799 H   0  0  0  0  0  0  0  0  0  0  0  0
    8.2583   -1.8459   23.6812 H   0  0  0  0  0  0  0  0  0  0  0  0
    6.3820   -1.4140   22.0040 H   0  0  0  0  0  0  0  0  0  0  0  0
    7.7398   -2.1465   21.4688 H   0  0  0  0  0  0  0  0  0  0  0  0
    9.9778   -1.0792   22.3720 H   0  0  0  0  0  0  0  0  0  0  0  0
    9.7544    0.2055   23.3549 H   0  0  0  0  0  0  0  0  0  0  0  0
    8.2212   -0.4047   18.5263 H   0  0  0  0  0  0  0  0  0  0  0  0
    5.6387    0.9345   22.2025 H   0  0  0  0  0  0  0  0  0  0  0  0
    4.9593    1.4076   16.9428 H   0  0  0  0  0  0  0  0  0  0  0  0
    3.2136    2.3350   18.4043 H   0  0  0  0  0  0  0  0  0  0  0  0
    3.5504    2.0705   22.4419 H   0  0  0  0  0  0  0  0  0  0  0  0
  1  2  1  0  0  0  0
  2  3  2  0  0  0  0
  2  4  1  0  0  0  0
  3  5  1  0  0  0  0
  3  6  1  0  0  0  0
  4  7  2  0  0  0  0
  6  8  2  0  0  0  0
  7  9  1  0  0  0  0
  9 10  1  0  0  0  0
 10 11  1  0  0  0  0
 11 12  1  0  0  0  0
 11 13  1  0  0  0  0
 12 14  1  0  0  0  0
 13 15  1  0  0  0  0
 14 16  1  0  0  0  0
 15 17  2  0  0  0  0
 16 18  1  0  0  0  0
 16 19  2  0  0  0  0
 18 20  1  0  0  0  0
 18 21  2  0  0  0  0
 19 22  1  0  0  0  0
 20 23  1  0  0  0  0
 20 24  2  0  0  0  0
 21 25  1  0  0  0  0
 24 26  1  0  0  0  0
  7  8  1  0  0  0  0
 14 15  1  0  0  0  0
 22 23  2  0  0  0  0
 25 26  2  0  0  0  0
  4 27  1  0  0  0  0
  6 28  1  0  0  0  0
  8 29  1  0  0  0  0
  9 30  1  0  0  0  0
  9 31  1  0  0  0  0
 10 32  1  0  0  0  0
 10 33  1  0  0  0  0
 11 34  1  0  0  0  0
 12 35  1  0  0  0  0
 12 36  1  0  0  0  0
 13 37  1  0  0  0  0
 13 38  1  0  0  0  0
 19 39  1  0  0  0  0
 21 40  1  0  0  0  0
 23 41  1  0  0  0  0
 24 42  1  0  0  0  0
 25 43  1  0  0  0  0
M  END
> <BIOSOLVEIT.HYDE_ESTIMATED_AFFINITY_LOWER_BOUNDARY [nM]>
15873.146192

> <BIOSOLVEIT.HYDE_ESTIMATED_AFFINITY_UPPER_BOUNDARY [nM]>
1577090.923686

> <BIOSOLVEIT.HYDE_LIGAND_EFFICIENCY range: ++, +, 0, -, -->
--

> <BIOSOLVEIT.HYDE_LIGAND_LIPOPHILIC_EFFICIENCY range: ++, +, 0, -, -->
--

> <BIOSOLVEIT.INTER_CLASH range: red, yellow, green>
green

> <BIOSOLVEIT.INTRA_CLASH range: red, yellow, green>
green

> <BIOSOLVEIT.LOGP>
4.9223

> <BIOSOLVEIT.MOLECULAR WEIGHT>
386.28

> <BIOSOLVEIT.MOLECULE_CHECKSUM>
LTIxLjY5NDc7MC44MzQ0MQ==

> <BIOSOLVEIT.TORSION_QUALITY range: red, yellow, green, not rotatable>
green

> <BIOSOLVEIT.TPSA>
46.09

> <BIOSOLVEIT.SEESAR_FAVORITE>
favorite

> <smc_score>
0.688

> <QED_score>
0.639

> <distance>
0.55

> <SimilarityPheSA_1>
0.685

> <Smiles>
O=C1CC(CCc2ccc(Cl)c(Cl)c2)CN1c1cncc2cnccc12

> <Similarity_SkelSpheres>
0.816

> <Cluster No>
398.0

> <QueryID>
MAT-POS-f7918075-5

> <SimilarityPheSA>
0.6847

> <Postera series>
3-aminopyridine-like

> <PDB_code>
Mpro-x11499

> <Approach>
DGM_focussed_RL

> <ID>
20210618_705

> <SimilarityPheSA_2>
0.865

> <OPTIBRIUM.logD>
3.79392

> <OPTIBRIUM.BBB category>
+

> <OPTIBRIUM.logP>
3.79392

> <OPTIBRIUM.P-gp category>
no

> <OPTIBRIUM.logS>
0.168857

> <OPTIBRIUM.HIA category>
+

> <OPTIBRIUM.PPB90 category>
high

> <OPTIBRIUM.2D6 affinity category>
medium

> <OPTIBRIUM.hERG pIC50>
5.20949

> <OPTIBRIUM.2C9 pKi>
5.53082

> <OPTIBRIUM.BBB log([brain]:[blood])>
-0.336391

> <OPTIBRIUM.logS @ pH7.4>
0.168857

$$$$
Compound 706_1_005
haSeeSAR  07122111353D 1   1.00000     0.00000     0
SeeSAR 11.0.2 hazemaj
 43 46  0  0  0  0            999 V2000
    6.3502    5.4060   25.6104 Cl  0  0  0  0  0  0  0  0  0  0  0  0
    6.5432    3.7487   26.2318 C   0  0  0  0  0  0  0  0  0  0  0  0
    5.9917    3.3976   27.4592 C   0  0  0  0  0  0  0  0  0  0  0  0
    7.2460    2.8147   25.4792 C   0  0  0  0  0  0  0  0  0  0  0  0
    5.0974    4.6125   28.4035 Cl  0  0  0  0  0  0  0  0  0  0  0  0
    6.1352    2.1049   27.9534 C   0  0  0  0  0  0  0  0  0  0  0  0
    7.3867    1.5247   25.9782 C   0  0  0  0  0  0  0  0  0  0  0  0
    6.8384    1.1667   27.2051 C   0  0  0  0  0  0  0  0  0  0  0  0
    8.1516    0.4900   25.1686 C   0  0  0  0  0  0  0  0  0  0  0  0
    7.2555   -0.0569   24.0694 C   0  0  0  0  0  0  0  0  0  0  0  0
    8.0540   -1.0005   23.1880 C   0  0  1  0  0  0  0  0  0  0  0  0
    7.3684   -1.3114   21.8740 C   0  0  0  0  0  0  0  0  0  0  0  0
    9.3278   -0.3779   22.6638 C   0  0  0  0  0  0  0  0  0  0  0  0
    7.6637   -0.1483   21.0316 N   0  0  0  0  0  0  0  0  0  0  0  0
    8.8406    0.4401   21.4839 C   0  0  0  0  0  0  0  0  0  0  0  0
    6.8855    0.2976   19.9555 C   0  0  0  0  0  0  0  0  0  0  0  0
    9.3785    1.4317   21.0239 O   0  0  0  0  0  0  0  0  0  0  0  0
    5.6709    0.9578   20.1289 C   0  0  0  0  0  0  0  0  0  0  0  0
    7.3511    0.0682   18.6649 C   0  0  0  0  0  0  0  0  0  0  0  0
    4.9477    1.3748   19.0176 C   0  0  0  0  0  0  0  0  0  0  0  0
    5.1380    1.2241   21.3869 C   0  0  0  0  0  0  0  0  0  0  0  0
    6.6380    0.4786   17.6054 N   0  0  0  0  0  0  0  0  0  0  0  0
    5.4669    1.1152   17.7534 C   0  0  0  0  0  0  0  0  0  0  0  0
    3.7361    2.0335   19.2020 C   0  0  0  0  0  0  0  0  0  0  0  0
    3.9226    1.8853   21.5324 C   0  0  0  0  0  0  0  0  0  0  0  0
    3.2577    2.2709   20.4326 N   0  0  0  0  0  0  0  0  0  0  0  0
    7.6426    3.0658   24.5963 H   0  0  0  0  0  0  0  0  0  0  0  0
    5.7377    1.8535   28.8358 H   0  0  0  0  0  0  0  0  0  0  0  0
    6.9497    0.2344   27.5495 H   0  0  0  0  0  0  0  0  0  0  0  0
    8.4377   -0.2574   25.7682 H   0  0  0  0  0  0  0  0  0  0  0  0
    8.9583    0.9166   24.7596 H   0  0  0  0  0  0  0  0  0  0  0  0
    6.9061    0.6998   23.5168 H   0  0  0  0  0  0  0  0  0  0  0  0
    6.4894   -0.5519   24.4793 H   0  0  0  0  0  0  0  0  0  0  0  0
    8.2586   -1.8461   23.6811 H   0  0  0  0  0  0  0  0  0  0  0  0
    6.3822   -1.4142   22.0040 H   0  0  0  0  0  0  0  0  0  0  0  0
    7.7400   -2.1466   21.4687 H   0  0  0  0  0  0  0  0  0  0  0  0
    9.9780   -1.0793   22.3720 H   0  0  0  0  0  0  0  0  0  0  0  0
    9.7546    0.2053   23.3549 H   0  0  0  0  0  0  0  0  0  0  0  0
    8.2213   -0.4047   18.5263 H   0  0  0  0  0  0  0  0  0  0  0  0
    5.6389    0.9343   22.2025 H   0  0  0  0  0  0  0  0  0  0  0  0
    4.9594    1.4076   16.9429 H   0  0  0  0  0  0  0  0  0  0  0  0
    3.2137    2.3349   18.4044 H   0  0  0  0  0  0  0  0  0  0  0  0
    3.5506    2.0702   22.4420 H   0  0  0  0  0  0  0  0  0  0  0  0
  1  2  1  0  0  0  0
  2  3  2  0  0  0  0
  2  4  1  0  0  0  0
  3  5  1  0  0  0  0
  3  6  1  0  0  0  0
  4  7  2  0  0  0  0
  6  8  2  0  0  0  0
  7  9  1  0  0  0  0
  9 10  1  0  0  0  0
 10 11  1  0  0  0  0
 11 12  1  0  0  0  0
 11 13  1  0  0  0  0
 12 14  1  0  0  0  0
 13 15  1  0  0  0  0
 14 16  1  0  0  0  0
 15 17  2  0  0  0  0
 16 18  1  0  0  0  0
 16 19  2  0  0  0  0
 18 20  1  0  0  0  0
 18 21  2  0  0  0  0
 19 22  1  0  0  0  0
 20 23  1  0  0  0  0
 20 24  2  0  0  0  0
 21 25  1  0  0  0  0
 24 26  1  0  0  0  0
  7  8  1  0  0  0  0
 14 15  1  0  0  0  0
 22 23  2  0  0  0  0
 25 26  2  0  0  0  0
  4 27  1  0  0  0  0
  6 28  1  0  0  0  0
  8 29  1  0  0  0  0
  9 30  1  0  0  0  0
  9 31  1  0  0  0  0
 10 32  1  0  0  0  0
 10 33  1  0  0  0  0
 11 34  1  0  0  0  0
 12 35  1  0  0  0  0
 12 36  1  0  0  0  0
 13 37  1  0  0  0  0
 13 38  1  0  0  0  0
 19 39  1  0  0  0  0
 21 40  1  0  0  0  0
 23 41  1  0  0  0  0
 24 42  1  0  0  0  0
 25 43  1  0  0  0  0
M  END
> <BIOSOLVEIT.HYDE_ESTIMATED_AFFINITY_LOWER_BOUNDARY [nM]>
15873.456551

> <BIOSOLVEIT.HYDE_ESTIMATED_AFFINITY_UPPER_BOUNDARY [nM]>
1577121.759647

> <BIOSOLVEIT.HYDE_LIGAND_EFFICIENCY range: ++, +, 0, -, -->
--

> <BIOSOLVEIT.HYDE_LIGAND_LIPOPHILIC_EFFICIENCY range: ++, +, 0, -, -->
--

> <BIOSOLVEIT.INTER_CLASH range: red, yellow, green>
green

> <BIOSOLVEIT.INTRA_CLASH range: red, yellow, green>
green

> <BIOSOLVEIT.LOGP>
4.9223

> <BIOSOLVEIT.MOLECULAR WEIGHT>
386.28

> <BIOSOLVEIT.MOLECULE_CHECKSUM>
LTIxLjY5NDY7MC44MzQ0MDg=

> <BIOSOLVEIT.TORSION_QUALITY range: red, yellow, green, not rotatable>
green

> <BIOSOLVEIT.TPSA>
46.09

> <BIOSOLVEIT.SEESAR_FAVORITE>
favorite

> <smc_score>
0.688

> <QED_score>
0.639

> <distance>
0.55

> <SimilarityPheSA_1>
0.685

> <Smiles>
O=C1CC(CCc2ccc(Cl)c(Cl)c2)CN1c1cncc2cnccc12

> <Similarity_SkelSpheres>
0.816

> <Cluster No>
398.0

> <QueryID>
MAT-POS-f7918075-5

> <SimilarityPheSA>
0.6847

> <Postera series>
3-aminopyridine-like

> <PDB_code>
Mpro-x11499

> <Approach>
DGM_focussed_RL

> <ID>
20210618_705

> <SimilarityPheSA_2>
0.865

> <OPTIBRIUM.logD>
3.79392

> <OPTIBRIUM.BBB category>
+

> <OPTIBRIUM.logP>
3.79392

> <OPTIBRIUM.P-gp category>
no

> <OPTIBRIUM.logS>
0.168857

> <OPTIBRIUM.HIA category>
+

> <OPTIBRIUM.PPB90 category>
high

> <OPTIBRIUM.2D6 affinity category>
medium

> <OPTIBRIUM.hERG pIC50>
5.20949

> <OPTIBRIUM.2C9 pKi>
5.53082

> <OPTIBRIUM.BBB log([brain]:[blood])>
-0.336391

> <OPTIBRIUM.logS @ pH7.4>
0.168857

$$$$
Compound 706_1_002
haSeeSAR  07122111353D 1   1.00000     0.00000     0
SeeSAR 11.0.2 hazemaj
 43 46  0  0  0  0            999 V2000
    6.3485    5.4074   25.6075 Cl  0  0  0  0  0  0  0  0  0  0  0  0
    6.5423    3.7505   26.2296 C   0  0  0  0  0  0  0  0  0  0  0  0
    5.9911    3.3996   27.4574 C   0  0  0  0  0  0  0  0  0  0  0  0
    7.2452    2.8164   25.4774 C   0  0  0  0  0  0  0  0  0  0  0  0
    5.0966    4.6148   28.4013 Cl  0  0  0  0  0  0  0  0  0  0  0  0
    6.1351    2.1073   27.9521 C   0  0  0  0  0  0  0  0  0  0  0  0
    7.3863    1.5266   25.9769 C   0  0  0  0  0  0  0  0  0  0  0  0
    6.8385    1.1689   27.2042 C   0  0  0  0  0  0  0  0  0  0  0  0
    8.1515    0.4917   25.1676 C   0  0  0  0  0  0  0  0  0  0  0  0
    7.2550   -0.0565   24.0694 C   0  0  0  0  0  0  0  0  0  0  0  0
    8.0537   -1.0002   23.1880 C   0  0  1  0  0  0  0  0  0  0  0  0
    7.3682   -1.3111   21.8741 C   0  0  0  0  0  0  0  0  0  0  0  0
    9.3274   -0.3776   22.6640 C   0  0  0  0  0  0  0  0  0  0  0  0
    7.6635   -0.1481   21.0316 N   0  0  0  0  0  0  0  0  0  0  0  0
    8.8402    0.4405   21.4841 C   0  0  0  0  0  0  0  0  0  0  0  0
    6.8853    0.2979   19.9555 C   0  0  0  0  0  0  0  0  0  0  0  0
    9.3782    1.4320   21.0240 O   0  0  0  0  0  0  0  0  0  0  0  0
    5.6708    0.9581   20.1288 C   0  0  0  0  0  0  0  0  0  0  0  0
    7.3510    0.0683   18.6649 C   0  0  0  0  0  0  0  0  0  0  0  0
    4.9475    1.3750   19.0175 C   0  0  0  0  0  0  0  0  0  0  0  0
    5.1379    1.2245   21.3867 C   0  0  0  0  0  0  0  0  0  0  0  0
    6.6379    0.4786   17.6054 N   0  0  0  0  0  0  0  0  0  0  0  0
    5.4668    1.1153   17.7532 C   0  0  0  0  0  0  0  0  0  0  0  0
    3.7360    2.0338   19.2018 C   0  0  0  0  0  0  0  0  0  0  0  0
    3.9224    1.8857   21.5322 C   0  0  0  0  0  0  0  0  0  0  0  0
    3.2576    2.2712   20.4324 N   0  0  0  0  0  0  0  0  0  0  0  0
    7.6415    3.0671   24.5943 H   0  0  0  0  0  0  0  0  0  0  0  0
    5.7379    1.8561   28.8348 H   0  0  0  0  0  0  0  0  0  0  0  0
    6.9502    0.2369   27.5489 H   0  0  0  0  0  0  0  0  0  0  0  0
    8.4385   -0.2550   25.7675 H   0  0  0  0  0  0  0  0  0  0  0  0
    8.9576    0.9186   24.7577 H   0  0  0  0  0  0  0  0  0  0  0  0
    6.9046    0.6995   23.5165 H   0  0  0  0  0  0  0  0  0  0  0  0
    6.4895   -0.5518   24.4802 H   0  0  0  0  0  0  0  0  0  0  0  0
    8.2583   -1.8458   23.6812 H   0  0  0  0  0  0  0  0  0  0  0  0
    6.3820   -1.4139   22.0040 H   0  0  0  0  0  0  0  0  0  0  0  0
    7.7399   -2.1463   21.4689 H   0  0  0  0  0  0  0  0  0  0  0  0
    9.9777   -1.0790   22.3721 H   0  0  0  0  0  0  0  0  0  0  0  0
    9.7541    0.2058   23.3551 H   0  0  0  0  0  0  0  0  0  0  0  0
    8.2211   -0.4046   18.5263 H   0  0  0  0  0  0  0  0  0  0  0  0
    5.6386    0.9347   22.2024 H   0  0  0  0  0  0  0  0  0  0  0  0
    4.9593    1.4076   16.9427 H   0  0  0  0  0  0  0  0  0  0  0  0
    3.2136    2.3352   18.4042 H   0  0  0  0  0  0  0  0  0  0  0  0
    3.5504    2.0706   22.4417 H   0  0  0  0  0  0  0  0  0  0  0  0
  1  2  1  0  0  0  0
  2  3  2  0  0  0  0
  2  4  1  0  0  0  0
  3  5  1  0  0  0  0
  3  6  1  0  0  0  0
  4  7  2  0  0  0  0
  6  8  2  0  0  0  0
  7  9  1  0  0  0  0
  9 10  1  0  0  0  0
 10 11  1  0  0  0  0
 11 12  1  0  0  0  0
 11 13  1  0  0  0  0
 12 14  1  0  0  0  0
 13 15  1  0  0  0  0
 14 16  1  0  0  0  0
 15 17  2  0  0  0  0
 16 18  1  0  0  0  0
 16 19  2  0  0  0  0
 18 20  1  0  0  0  0
 18 21  2  0  0  0  0
 19 22  1  0  0  0  0
 20 23  1  0  0  0  0
 20 24  2  0  0  0  0
 21 25  1  0  0  0  0
 24 26  1  0  0  0  0
  7  8  1  0  0  0  0
 14 15  1  0  0  0  0
 22 23  2  0  0  0  0
 25 26  2  0  0  0  0
  4 27  1  0  0  0  0
  6 28  1  0  0  0  0
  8 29  1  0  0  0  0
  9 30  1  0  0  0  0
  9 31  1  0  0  0  0
 10 32  1  0  0  0  0
 10 33  1  0  0  0  0
 11 34  1  0  0  0  0
 12 35  1  0  0  0  0
 12 36  1  0  0  0  0
 13 37  1  0  0  0  0
 13 38  1  0  0  0  0
 19 39  1  0  0  0  0
 21 40  1  0  0  0  0
 23 41  1  0  0  0  0
 24 42  1  0  0  0  0
 25 43  1  0  0  0  0
M  END
> <BIOSOLVEIT.HYDE_ESTIMATED_AFFINITY_LOWER_BOUNDARY [nM]>
15874.789952

> <BIOSOLVEIT.HYDE_ESTIMATED_AFFINITY_UPPER_BOUNDARY [nM]>
1577254.240933

> <BIOSOLVEIT.HYDE_LIGAND_EFFICIENCY range: ++, +, 0, -, -->
--

> <BIOSOLVEIT.HYDE_LIGAND_LIPOPHILIC_EFFICIENCY range: ++, +, 0, -, -->
--

> <BIOSOLVEIT.INTER_CLASH range: red, yellow, green>
green

> <BIOSOLVEIT.INTRA_CLASH range: red, yellow, green>
green

> <BIOSOLVEIT.LOGP>
4.9223

> <BIOSOLVEIT.MOLECULAR WEIGHT>
386.28

> <BIOSOLVEIT.MOLECULE_CHECKSUM>
LTIxLjY5NDQ7MC44MzQ0

> <BIOSOLVEIT.TORSION_QUALITY range: red, yellow, green, not rotatable>
green

> <BIOSOLVEIT.TPSA>
46.09

> <BIOSOLVEIT.SEESAR_FAVORITE>
favorite

> <smc_score>
0.688

> <QED_score>
0.639

> <distance>
0.55

> <SimilarityPheSA_1>
0.685

> <Smiles>
O=C1CC(CCc2ccc(Cl)c(Cl)c2)CN1c1cncc2cnccc12

> <Similarity_SkelSpheres>
0.816

> <Cluster No>
398.0

> <QueryID>
MAT-POS-f7918075-5

> <SimilarityPheSA>
0.6847

> <Postera series>
3-aminopyridine-like

> <PDB_code>
Mpro-x11499

> <Approach>
DGM_focussed_RL

> <ID>
20210618_705

> <SimilarityPheSA_2>
0.865

> <OPTIBRIUM.logD>
3.79392

> <OPTIBRIUM.BBB category>
+

> <OPTIBRIUM.logP>
3.79392

> <OPTIBRIUM.P-gp category>
no

> <OPTIBRIUM.logS>
0.168857

> <OPTIBRIUM.HIA category>
+

> <OPTIBRIUM.PPB90 category>
high

> <OPTIBRIUM.2D6 affinity category>
medium

> <OPTIBRIUM.hERG pIC50>
5.20949

> <OPTIBRIUM.2C9 pKi>
5.53082

> <OPTIBRIUM.BBB log([brain]:[blood])>
-0.336391

> <OPTIBRIUM.logS @ pH7.4>
0.168857

$$$$
Compound 440_1_07
haSeeSAR  07122111353D 1   1.00000     0.00000     0
SeeSAR 11.0.2 hazemaj
 42 44  0  0  0  0            999 V2000
    7.6240   -5.5561   24.5021 Cl  0  0  0  0  0  0  0  0  0  0  0  0
    8.1829   -3.8706   24.6243 C   0  0  0  0  0  0  0  0  0  0  0  0
    8.1425   -3.2200   25.8527 C   0  0  0  0  0  0  0  0  0  0  0  0
    8.6536   -3.2295   23.4839 C   0  0  0  0  0  0  0  0  0  0  0  0
    8.5839   -1.9032   25.9272 C   0  0  0  0  0  0  0  0  0  0  0  0
    9.0892   -1.9123   23.5860 C   0  0  0  0  0  0  0  0  0  0  0  0
    8.5368   -1.0595   27.4937 Cl  0  0  0  0  0  0  0  0  0  0  0  0
    9.0591   -1.2381   24.8022 C   0  0  0  0  0  0  0  0  0  0  0  0
    9.6077   -1.1926   22.3524 C   0  0  0  0  0  0  0  0  0  0  0  0
    8.4957   -0.9533   21.4212 N   0  0  0  0  0  0  0  0  0  0  0  0
    8.4269    0.1858   20.7519 C   0  0  0  0  0  0  0  0  0  0  0  0
    9.2942    1.0453   20.9090 O   0  0  0  0  0  0  0  0  0  0  0  0
    7.3286    0.4223   19.8321 C   0  0  0  0  0  0  0  0  0  0  0  0
    6.1067    0.9645   20.2313 C   0  0  0  0  0  0  0  0  0  0  0  0
    7.5212    0.0886   18.4954 C   0  0  0  0  0  0  0  0  0  0  0  0
    5.1016    1.1606   19.2876 C   0  0  0  0  0  0  0  0  0  0  0  0
    5.8436    1.3255   21.5510 C   0  0  0  0  0  0  0  0  0  0  0  0
    6.5375    0.2877   17.6056 N   0  0  0  0  0  0  0  0  0  0  0  0
    5.3542    0.8068   17.9664 C   0  0  0  0  0  0  0  0  0  0  0  0
    3.8687    1.6977   19.6442 C   0  0  0  0  0  0  0  0  0  0  0  0
    4.6206    1.8642   21.9372 C   0  0  0  0  0  0  0  0  0  0  0  0
    3.6381    2.0456   20.9711 C   0  0  0  0  0  0  0  0  0  0  0  0
    4.4172    2.1978   23.2289 O   0  0  0  0  0  0  0  0  0  0  0  0
    2.4562    2.5682   21.3590 O   0  0  0  0  0  0  0  0  0  0  0  0
    5.4550    2.0162   24.1810 C   0  0  0  0  0  0  0  0  0  0  0  0
    1.4238    2.7741   20.4059 C   0  0  0  0  0  0  0  0  0  0  0  0
    7.8023   -3.6901   26.6671 H   0  0  0  0  0  0  0  0  0  0  0  0
    8.6786   -3.7069   22.6056 H   0  0  0  0  0  0  0  0  0  0  0  0
    9.3739   -0.2910   24.8664 H   0  0  0  0  0  0  0  0  0  0  0  0
   10.3018   -1.7563   21.9047 H   0  0  0  0  0  0  0  0  0  0  0  0
   10.0111   -0.3181   22.6216 H   0  0  0  0  0  0  0  0  0  0  0  0
    7.7912   -1.6515   21.2936 H   0  0  0  0  0  0  0  0  0  0  0  0
    8.3934   -0.2998   18.1978 H   0  0  0  0  0  0  0  0  0  0  0  0
    6.5551    1.1935   22.2412 H   0  0  0  0  0  0  0  0  0  0  0  0
    4.6436    0.9411   17.2757 H   0  0  0  0  0  0  0  0  0  0  0  0
    3.1569    1.8321   18.9548 H   0  0  0  0  0  0  0  0  0  0  0  0
    5.1368    2.3123   25.0815 H   0  0  0  0  0  0  0  0  0  0  0  0
    5.7078    1.0494   24.2181 H   0  0  0  0  0  0  0  0  0  0  0  0
    6.2512    2.5589   23.9138 H   0  0  0  0  0  0  0  0  0  0  0  0
    0.6236    3.1651   20.8606 H   0  0  0  0  0  0  0  0  0  0  0  0
    1.7449    3.4024   19.6973 H   0  0  0  0  0  0  0  0  0  0  0  0
    1.1761    1.8997   19.9888 H   0  0  0  0  0  0  0  0  0  0  0  0
  1  2  1  0  0  0  0
  2  3  2  0  0  0  0
  2  4  1  0  0  0  0
  3  5  1  0  0  0  0
  4  6  2  0  0  0  0
  5  7  1  0  0  0  0
  5  8  2  0  0  0  0
  6  9  1  0  0  0  0
  9 10  1  0  0  0  0
 10 11  1  0  0  0  0
 11 12  2  0  0  0  0
 11 13  1  0  0  0  0
 13 14  1  0  0  0  0
 13 15  2  0  0  0  0
 14 16  1  0  0  0  0
 14 17  2  0  0  0  0
 15 18  1  0  0  0  0
 16 19  1  0  0  0  0
 16 20  2  0  0  0  0
 17 21  1  0  0  0  0
 20 22  1  0  0  0  0
 21 23  1  0  0  0  0
 22 24  1  0  0  0  0
 23 25  1  0  0  0  0
 24 26  1  0  0  0  0
  6  8  1  0  0  0  0
 18 19  2  0  0  0  0
 21 22  2  0  0  0  0
  3 27  1  0  0  0  0
  4 28  1  0  0  0  0
  8 29  1  0  0  0  0
  9 30  1  0  0  0  0
  9 31  1  0  0  0  0
 10 32  1  0  0  0  0
 15 33  1  0  0  0  0
 17 34  1  0  0  0  0
 19 35  1  0  0  0  0
 20 36  1  0  0  0  0
 25 37  1  0  0  0  0
 25 38  1  0  0  0  0
 25 39  1  0  0  0  0
 26 40  1  0  0  0  0
 26 41  1  0  0  0  0
 26 42  1  0  0  0  0
M  END
> <BIOSOLVEIT.HYDE_ESTIMATED_AFFINITY_LOWER_BOUNDARY [nM]>
16505.698891

> <BIOSOLVEIT.HYDE_ESTIMATED_AFFINITY_UPPER_BOUNDARY [nM]>
1639938.774188

> <BIOSOLVEIT.HYDE_LIGAND_EFFICIENCY range: ++, +, 0, -, -->
--

> <BIOSOLVEIT.HYDE_LIGAND_LIPOPHILIC_EFFICIENCY range: ++, +, 0, -, -->
--

> <BIOSOLVEIT.INTER_CLASH range: red, yellow, green>
green

> <BIOSOLVEIT.INTRA_CLASH range: red, yellow, green>
green

> <BIOSOLVEIT.LOGP>
4.4888

> <BIOSOLVEIT.MOLECULAR WEIGHT>
391.252

> <BIOSOLVEIT.MOLECULE_CHECKSUM>
LTIxLjU5Nzg7MC44MzA2ODQ=

> <BIOSOLVEIT.TORSION_QUALITY range: red, yellow, green, not rotatable>
green

> <BIOSOLVEIT.TPSA>
60.45

> <BIOSOLVEIT.SEESAR_FAVORITE>
favorite

> <smc_score>
0.688

> <QED_score>
0.696

> <distance>
0.542

> <SimilarityPheSA_1>
0.634

> <Smiles>
COc1cc2cncc(C(=O)NCc3cc(Cl)cc(Cl)c3)c2cc1OC

> <Similarity_SkelSpheres>
0.716

> <Cluster No>
228.0

> <QueryID>
MAT-POS-bb423b95-1

> <SimilarityPheSA>
0.6337

> <Postera series>
3-aminopyridine-like

> <PDB_code>
Mpro-x11542

> <Approach>
DGM_focussed_RL

> <ID>
20210618_439

> <SimilarityPheSA_2>
0.865

> <OPTIBRIUM.logD>
3.61053

> <OPTIBRIUM.BBB category>
-

> <OPTIBRIUM.logP>
3.61053

> <OPTIBRIUM.P-gp category>
no

> <OPTIBRIUM.logS>
0.571622

> <OPTIBRIUM.HIA category>
+

> <OPTIBRIUM.PPB90 category>
high

> <OPTIBRIUM.2D6 affinity category>
medium

> <OPTIBRIUM.hERG pIC50>
4.64747

> <OPTIBRIUM.2C9 pKi>
5.62145

> <OPTIBRIUM.BBB log([brain]:[blood])>
-0.214112

> <OPTIBRIUM.logS @ pH7.4>
0.571622

$$$$
Compound 330_1_07
haSeeSAR  07122111353D 1   1.00000     0.00000     0
SeeSAR 11.0.2 hazemaj
 47 50  0  0  0  0            999 V2000
    4.5804    3.1721   30.0209 Cl  0  0  0  0  0  0  0  0  0  0  0  0
    5.7254    3.0980   28.6595 C   0  0  0  0  0  0  0  0  0  0  0  0
    5.8235    4.1662   27.7743 C   0  0  0  0  0  0  0  0  0  0  0  0
    6.5171    1.9675   28.4935 C   0  0  0  0  0  0  0  0  0  0  0  0
    4.7979    5.6018   28.0084 Cl  0  0  0  0  0  0  0  0  0  0  0  0
    6.7161    4.1195   26.7080 C   0  0  0  0  0  0  0  0  0  0  0  0
    7.4068    1.9260   27.4261 C   0  0  0  0  0  0  0  0  0  0  0  0
    7.5098    2.9902   26.5366 C   0  0  0  0  0  0  0  0  0  0  0  0
    8.2809    0.6978   27.2295 C   0  0  0  0  0  0  0  0  0  0  0  0
    8.0980    0.1801   25.8684 N   0  0  0  0  0  0  0  0  0  0  0  0
    9.0885    0.1582   24.8918 C   0  0  0  0  0  0  0  0  0  0  0  0
    6.8533   -0.3671   25.3030 C   0  0  0  0  0  0  0  0  0  0  0  0
   10.2107    0.6123   25.0622 O   0  0  0  0  0  0  0  0  0  0  0  0
    8.6192   -0.4503   23.7197 N   0  0  0  0  0  0  0  0  0  0  0  0
    7.2540   -0.9343   23.9563 C   0  0  0  0  0  0  0  0  0  0  0  0
    9.3887   -0.6010   22.4724 C   0  0  0  0  0  0  0  0  0  0  0  0
    8.6347    0.0584   21.3291 C   0  0  0  0  0  0  0  0  0  0  0  0
    9.0342    1.1254   20.8628 O   0  0  0  0  0  0  0  0  0  0  0  0
    7.5491   -0.5142   20.8352 N   0  0  0  0  0  0  0  0  0  0  0  0
    6.8535    0.0942   19.7804 C   0  0  0  0  0  0  0  0  0  0  0  0
    5.6620    0.7709   20.0410 C   0  0  0  0  0  0  0  0  0  0  0  0
    7.3261    0.0326   18.4726 C   0  0  0  0  0  0  0  0  0  0  0  0
    4.9534    1.3934   19.0302 C   0  0  0  0  0  0  0  0  0  0  0  0
    4.9047    0.9749   21.3344 C   0  0  0  0  0  0  0  0  0  0  0  0
    6.6266    0.6256   17.4920 N   0  0  0  0  0  0  0  0  0  0  0  0
    3.8177    1.9931   19.5819 N   0  0  0  0  0  0  0  0  0  0  0  0
    5.4843    1.2875   17.7456 C   0  0  0  0  0  0  0  0  0  0  0  0
    4.0204    2.1554   21.0259 C   0  0  0  0  0  0  0  0  0  0  0  0
    6.4479    1.1989   29.1297 H   0  0  0  0  0  0  0  0  0  0  0  0
    6.7861    4.8885   26.0725 H   0  0  0  0  0  0  0  0  0  0  0  0
    8.1545    2.9435   25.7738 H   0  0  0  0  0  0  0  0  0  0  0  0
    8.0212   -0.0056   27.8912 H   0  0  0  0  0  0  0  0  0  0  0  0
    9.2400    0.9458   27.3657 H   0  0  0  0  0  0  0  0  0  0  0  0
    6.1703    0.3547   25.1918 H   0  0  0  0  0  0  0  0  0  0  0  0
    6.4854   -1.0862   25.8925 H   0  0  0  0  0  0  0  0  0  0  0  0
    6.6373   -0.6056   23.2408 H   0  0  0  0  0  0  0  0  0  0  0  0
    7.2361   -1.9339   23.9783 H   0  0  0  0  0  0  0  0  0  0  0  0
    9.5131   -1.5729   22.2729 H   0  0  0  0  0  0  0  0  0  0  0  0
   10.2826   -0.1652   22.5774 H   0  0  0  0  0  0  0  0  0  0  0  0
    7.2247   -1.3809   21.2140 H   0  0  0  0  0  0  0  0  0  0  0  0
    8.1779   -0.4486   18.2655 H   0  0  0  0  0  0  0  0  0  0  0  0
    5.5290    1.1805   22.0880 H   0  0  0  0  0  0  0  0  0  0  0  0
    4.3601    0.1679   21.5634 H   0  0  0  0  0  0  0  0  0  0  0  0
    3.0003    2.2669   19.0750 H   0  0  0  0  0  0  0  0  0  0  0  0
    4.9982    1.7191   16.9859 H   0  0  0  0  0  0  0  0  0  0  0  0
    4.4770    3.0198   21.2366 H   0  0  0  0  0  0  0  0  0  0  0  0
    3.1553    2.1051   21.5250 H   0  0  0  0  0  0  0  0  0  0  0  0
  1  2  1  0  0  0  0
  2  3  2  0  0  0  0
  2  4  1  0  0  0  0
  3  5  1  0  0  0  0
  3  6  1  0  0  0  0
  4  7  2  0  0  0  0
  6  8  2  0  0  0  0
  7  9  1  0  0  0  0
  9 10  1  0  0  0  0
 10 11  1  0  0  0  0
 10 12  1  0  0  0  0
 11 13  2  0  0  0  0
 11 14  1  0  0  0  0
 12 15  1  0  0  0  0
 14 16  1  0  0  0  0
 16 17  1  0  0  0  0
 17 18  2  0  0  0  0
 17 19  1  0  0  0  0
 19 20  1  0  0  0  0
 20 21  2  0  0  0  0
 20 22  1  0  0  0  0
 21 23  1  0  0  0  0
 21 24  1  0  0  0  0
 22 25  2  0  0  0  0
 23 26  1  0  0  0  0
 23 27  2  0  0  0  0
 24 28  1  0  0  0  0
  7  8  1  0  0  0  0
 14 15  1  0  0  0  0
 25 27  1  0  0  0  0
 26 28  1  0  0  0  0
  4 29  1  0  0  0  0
  6 30  1  0  0  0  0
  8 31  1  0  0  0  0
  9 32  1  0  0  0  0
  9 33  1  0  0  0  0
 12 34  1  0  0  0  0
 12 35  1  0  0  0  0
 15 36  1  0  0  0  0
 15 37  1  0  0  0  0
 16 38  1  0  0  0  0
 16 39  1  0  0  0  0
 19 40  1  0  0  0  0
 22 41  1  0  0  0  0
 24 42  1  0  0  0  0
 24 43  1  0  0  0  0
 26 44  1  0  0  0  0
 27 45  1  0  0  0  0
 28 46  1  0  0  0  0
 28 47  1  0  0  0  0
M  END
> <BIOSOLVEIT.HYDE_ESTIMATED_AFFINITY_LOWER_BOUNDARY [nM]>
16642.213416

> <BIOSOLVEIT.HYDE_ESTIMATED_AFFINITY_UPPER_BOUNDARY [nM]>
1653502.299436

> <BIOSOLVEIT.HYDE_LIGAND_EFFICIENCY range: ++, +, 0, -, -->
--

> <BIOSOLVEIT.HYDE_LIGAND_LIPOPHILIC_EFFICIENCY range: ++, +, 0, -, -->
--

> <BIOSOLVEIT.INTER_CLASH range: red, yellow, green>
green

> <BIOSOLVEIT.INTRA_CLASH range: red, yellow, green>
green

> <BIOSOLVEIT.LOGP>
3.2327

> <BIOSOLVEIT.MOLECULAR WEIGHT>
420.298

> <BIOSOLVEIT.MOLECULE_CHECKSUM>
LTIxLjU3NzQ7MC43NzA2Mg==

> <BIOSOLVEIT.TORSION_QUALITY range: red, yellow, green, not rotatable>
yellow

> <BIOSOLVEIT.TPSA>
77.57

> <BIOSOLVEIT.SEESAR_FAVORITE>
favorite

> <smc_score>
0.875

> <QED_score>
0.779

> <distance>
0.522

> <SimilarityPheSA_1>
0.664

> <Smiles>
O=C(CN1CCN(Cc2ccc(Cl)c(Cl)c2)C1=O)Nc1cncc2c1CCN2

> <Similarity_SkelSpheres>
0.672

> <Cluster No>
165.0

> <QueryID>
PET-UNK-c9c1e0d8-3

> <SimilarityPheSA>
0.6641

> <Postera series>
3-aminopyridine-like

> <PDB_code>
Mpro-x12587

> <Approach>
DGM_focussed_RL

> <ID>
20210618_329

> <SimilarityPheSA_2>
0.672

> <OPTIBRIUM.logD>
2.24858

> <OPTIBRIUM.BBB category>
-

> <OPTIBRIUM.logP>
2.16387

> <OPTIBRIUM.P-gp category>
yes

> <OPTIBRIUM.logS>
2.07129

> <OPTIBRIUM.HIA category>
+

> <OPTIBRIUM.PPB90 category>
high

> <OPTIBRIUM.2D6 affinity category>
medium

> <OPTIBRIUM.hERG pIC50>
4.78816

> <OPTIBRIUM.2C9 pKi>
5.63938

> <OPTIBRIUM.BBB log([brain]:[blood])>
-0.305901

> <OPTIBRIUM.logS @ pH7.4>
1.5639

$$$$
Compound 330_1_08
haSeeSAR  07122111353D 1   1.00000     0.00000     0
SeeSAR 11.0.2 hazemaj
 47 50  0  0  0  0            999 V2000
    4.5831    3.1759   30.0221 Cl  0  0  0  0  0  0  0  0  0  0  0  0
    5.7269    3.1005   28.6600 C   0  0  0  0  0  0  0  0  0  0  0  0
    5.8248    4.1681   27.7740 C   0  0  0  0  0  0  0  0  0  0  0  0
    6.5181    1.9696   28.4941 C   0  0  0  0  0  0  0  0  0  0  0  0
    4.7999    5.6042   28.0080 Cl  0  0  0  0  0  0  0  0  0  0  0  0
    6.7166    4.1203   26.7071 C   0  0  0  0  0  0  0  0  0  0  0  0
    7.4070    1.9270   27.4260 C   0  0  0  0  0  0  0  0  0  0  0  0
    7.5096    2.9906   26.5358 C   0  0  0  0  0  0  0  0  0  0  0  0
    8.2805    0.6983   27.2296 C   0  0  0  0  0  0  0  0  0  0  0  0
    8.0976    0.1807   25.8685 N   0  0  0  0  0  0  0  0  0  0  0  0
    9.0880    0.1585   24.8919 C   0  0  0  0  0  0  0  0  0  0  0  0
    6.8527   -0.3661   25.3030 C   0  0  0  0  0  0  0  0  0  0  0  0
   10.2104    0.6123   25.0624 O   0  0  0  0  0  0  0  0  0  0  0  0
    8.6186   -0.4498   23.7198 N   0  0  0  0  0  0  0  0  0  0  0  0
    7.2533   -0.9335   23.9562 C   0  0  0  0  0  0  0  0  0  0  0  0
    9.3882   -0.6007   22.4726 C   0  0  0  0  0  0  0  0  0  0  0  0
    8.6343    0.0586   21.3292 C   0  0  0  0  0  0  0  0  0  0  0  0
    9.0339    1.1256   20.8628 O   0  0  0  0  0  0  0  0  0  0  0  0
    7.5488   -0.5140   20.8353 N   0  0  0  0  0  0  0  0  0  0  0  0
    6.8533    0.0944   19.7803 C   0  0  0  0  0  0  0  0  0  0  0  0
    5.6617    0.7711   20.0408 C   0  0  0  0  0  0  0  0  0  0  0  0
    7.3259    0.0326   18.4726 C   0  0  0  0  0  0  0  0  0  0  0  0
    4.9532    1.3935   19.0298 C   0  0  0  0  0  0  0  0  0  0  0  0
    4.9043    0.9752   21.3341 C   0  0  0  0  0  0  0  0  0  0  0  0
    6.6265    0.6256   17.4918 N   0  0  0  0  0  0  0  0  0  0  0  0
    3.8175    1.9934   19.5815 N   0  0  0  0  0  0  0  0  0  0  0  0
    5.4842    1.2875   17.7453 C   0  0  0  0  0  0  0  0  0  0  0  0
    4.0201    2.1558   21.0254 C   0  0  0  0  0  0  0  0  0  0  0  0
    6.4491    1.2014   29.1308 H   0  0  0  0  0  0  0  0  0  0  0  0
    6.7864    4.8889   26.0712 H   0  0  0  0  0  0  0  0  0  0  0  0
    8.1538    2.9432   25.7724 H   0  0  0  0  0  0  0  0  0  0  0  0
    8.0203   -0.0049   27.8913 H   0  0  0  0  0  0  0  0  0  0  0  0
    9.2397    0.9459   27.3659 H   0  0  0  0  0  0  0  0  0  0  0  0
    6.1699    0.3560   25.1917 H   0  0  0  0  0  0  0  0  0  0  0  0
    6.4845   -1.0851   25.8924 H   0  0  0  0  0  0  0  0  0  0  0  0
    6.6368   -0.6047   23.2408 H   0  0  0  0  0  0  0  0  0  0  0  0
    7.2351   -1.9330   23.9784 H   0  0  0  0  0  0  0  0  0  0  0  0
    9.5125   -1.5727   22.2732 H   0  0  0  0  0  0  0  0  0  0  0  0
   10.2821   -0.1650   22.5776 H   0  0  0  0  0  0  0  0  0  0  0  0
    7.2242   -1.3807   21.2141 H   0  0  0  0  0  0  0  0  0  0  0  0
    8.1777   -0.4487   18.2656 H   0  0  0  0  0  0  0  0  0  0  0  0
    5.5286    1.1809   22.0877 H   0  0  0  0  0  0  0  0  0  0  0  0
    4.3597    0.1683   21.5631 H   0  0  0  0  0  0  0  0  0  0  0  0
    3.0002    2.2671   19.0745 H   0  0  0  0  0  0  0  0  0  0  0  0
    4.9982    1.7190   16.9855 H   0  0  0  0  0  0  0  0  0  0  0  0
    4.4768    3.0201   21.2361 H   0  0  0  0  0  0  0  0  0  0  0  0
    3.1550    2.1055   21.5245 H   0  0  0  0  0  0  0  0  0  0  0  0
  1  2  1  0  0  0  0
  2  3  2  0  0  0  0
  2  4  1  0  0  0  0
  3  5  1  0  0  0  0
  3  6  1  0  0  0  0
  4  7  2  0  0  0  0
  6  8  2  0  0  0  0
  7  9  1  0  0  0  0
  9 10  1  0  0  0  0
 10 11  1  0  0  0  0
 10 12  1  0  0  0  0
 11 13  2  0  0  0  0
 11 14  1  0  0  0  0
 12 15  1  0  0  0  0
 14 16  1  0  0  0  0
 16 17  1  0  0  0  0
 17 18  2  0  0  0  0
 17 19  1  0  0  0  0
 19 20  1  0  0  0  0
 20 21  2  0  0  0  0
 20 22  1  0  0  0  0
 21 23  1  0  0  0  0
 21 24  1  0  0  0  0
 22 25  2  0  0  0  0
 23 26  1  0  0  0  0
 23 27  2  0  0  0  0
 24 28  1  0  0  0  0
  7  8  1  0  0  0  0
 14 15  1  0  0  0  0
 25 27  1  0  0  0  0
 26 28  1  0  0  0  0
  4 29  1  0  0  0  0
  6 30  1  0  0  0  0
  8 31  1  0  0  0  0
  9 32  1  0  0  0  0
  9 33  1  0  0  0  0
 12 34  1  0  0  0  0
 12 35  1  0  0  0  0
 15 36  1  0  0  0  0
 15 37  1  0  0  0  0
 16 38  1  0  0  0  0
 16 39  1  0  0  0  0
 19 40  1  0  0  0  0
 22 41  1  0  0  0  0
 24 42  1  0  0  0  0
 24 43  1  0  0  0  0
 26 44  1  0  0  0  0
 27 45  1  0  0  0  0
 28 46  1  0  0  0  0
 28 47  1  0  0  0  0
M  END
> <BIOSOLVEIT.HYDE_ESTIMATED_AFFINITY_LOWER_BOUNDARY [nM]>
16673.660336

> <BIOSOLVEIT.HYDE_ESTIMATED_AFFINITY_UPPER_BOUNDARY [nM]>
1656626.736876

> <BIOSOLVEIT.HYDE_LIGAND_EFFICIENCY range: ++, +, 0, -, -->
--

> <BIOSOLVEIT.HYDE_LIGAND_LIPOPHILIC_EFFICIENCY range: ++, +, 0, -, -->
--

> <BIOSOLVEIT.INTER_CLASH range: red, yellow, green>
green

> <BIOSOLVEIT.INTRA_CLASH range: red, yellow, green>
green

> <BIOSOLVEIT.LOGP>
3.2327

> <BIOSOLVEIT.MOLECULAR WEIGHT>
420.298

> <BIOSOLVEIT.MOLECULE_CHECKSUM>
LTIxLjU3Mjc7MC43NzA0NTM=

> <BIOSOLVEIT.TORSION_QUALITY range: red, yellow, green, not rotatable>
yellow

> <BIOSOLVEIT.TPSA>
77.57

> <BIOSOLVEIT.SEESAR_FAVORITE>
favorite

> <smc_score>
0.875

> <QED_score>
0.779

> <distance>
0.522

> <SimilarityPheSA_1>
0.664

> <Smiles>
O=C(CN1CCN(Cc2ccc(Cl)c(Cl)c2)C1=O)Nc1cncc2c1CCN2

> <Similarity_SkelSpheres>
0.672

> <Cluster No>
165.0

> <QueryID>
PET-UNK-c9c1e0d8-3

> <SimilarityPheSA>
0.6641

> <Postera series>
3-aminopyridine-like

> <PDB_code>
Mpro-x12587

> <Approach>
DGM_focussed_RL

> <ID>
20210618_329

> <SimilarityPheSA_2>
0.672

> <OPTIBRIUM.logD>
2.24858

> <OPTIBRIUM.BBB category>
-

> <OPTIBRIUM.logP>
2.16387

> <OPTIBRIUM.P-gp category>
yes

> <OPTIBRIUM.logS>
2.07129

> <OPTIBRIUM.HIA category>
+

> <OPTIBRIUM.PPB90 category>
high

> <OPTIBRIUM.2D6 affinity category>
medium

> <OPTIBRIUM.hERG pIC50>
4.78816

> <OPTIBRIUM.2C9 pKi>
5.63938

> <OPTIBRIUM.BBB log([brain]:[blood])>
-0.305901

> <OPTIBRIUM.logS @ pH7.4>
1.5639

$$$$
Compound 706_1_007
haSeeSAR  07122111353D 1   1.00000     0.00000     0
SeeSAR 11.0.2 hazemaj
 43 46  0  0  0  0            999 V2000
    5.4662    1.6630   29.5211 Cl  0  0  0  0  0  0  0  0  0  0  0  0
    6.1608    2.1062   27.9428 C   0  0  0  0  0  0  0  0  0  0  0  0
    6.0049    3.3983   27.4524 C   0  0  0  0  0  0  0  0  0  0  0  0
    6.8583    1.1518   27.2113 C   0  0  0  0  0  0  0  0  0  0  0  0
    5.1066    4.6012   28.4083 Cl  0  0  0  0  0  0  0  0  0  0  0  0
    6.5450    3.7558   26.2210 C   0  0  0  0  0  0  0  0  0  0  0  0
    7.3954    1.5144   25.9813 C   0  0  0  0  0  0  0  0  0  0  0  0
    7.2428    2.8045   25.4845 C   0  0  0  0  0  0  0  0  0  0  0  0
    8.1618    0.4837   25.1679 C   0  0  0  0  0  0  0  0  0  0  0  0
    7.2642   -0.0654   24.0710 C   0  0  0  0  0  0  0  0  0  0  0  0
    8.0631   -1.0059   23.1867 C   0  0  1  0  0  0  0  0  0  0  0  0
    7.3763   -1.3150   21.8729 C   0  0  0  0  0  0  0  0  0  0  0  0
    9.3352   -0.3802   22.6621 C   0  0  0  0  0  0  0  0  0  0  0  0
    7.6685   -0.1497   21.0325 N   0  0  0  0  0  0  0  0  0  0  0  0
    8.8451    0.4396   21.4847 C   0  0  0  0  0  0  0  0  0  0  0  0
    6.8884    0.2972   19.9587 C   0  0  0  0  0  0  0  0  0  0  0  0
    9.3808    1.4330   21.0259 O   0  0  0  0  0  0  0  0  0  0  0  0
    5.6737    0.9572   20.1312 C   0  0  0  0  0  0  0  0  0  0  0  0
    7.3480    0.0715   18.6652 C   0  0  0  0  0  0  0  0  0  0  0  0
    4.9529    1.3723   19.0175 C   0  0  0  0  0  0  0  0  0  0  0  0
    5.1433    1.2211   21.3910 C   0  0  0  0  0  0  0  0  0  0  0  0
    6.6363    0.4800   17.6042 N   0  0  0  0  0  0  0  0  0  0  0  0
    5.4648    1.1163   17.7496 C   0  0  0  0  0  0  0  0  0  0  0  0
    3.7410    2.0308   19.2003 C   0  0  0  0  0  0  0  0  0  0  0  0
    3.9276    1.8824   21.5324 C   0  0  0  0  0  0  0  0  0  0  0  0
    3.2652    2.2663   20.4318 N   0  0  0  0  0  0  0  0  0  0  0  0
    6.9715    0.2226   27.5630 H   0  0  0  0  0  0  0  0  0  0  0  0
    6.4328    4.6853   25.8699 H   0  0  0  0  0  0  0  0  0  0  0  0
    7.6350    3.0481   24.5974 H   0  0  0  0  0  0  0  0  0  0  0  0
    8.4529   -0.2632   25.7656 H   0  0  0  0  0  0  0  0  0  0  0  0
    8.9654    0.9141   24.7567 H   0  0  0  0  0  0  0  0  0  0  0  0
    6.9106    0.6905   23.5200 H   0  0  0  0  0  0  0  0  0  0  0  0
    6.5009   -0.5631   24.4830 H   0  0  0  0  0  0  0  0  0  0  0  0
    8.2697   -1.8522   23.6778 H   0  0  0  0  0  0  0  0  0  0  0  0
    6.3904   -1.4197   22.0041 H   0  0  0  0  0  0  0  0  0  0  0  0
    7.7486   -2.1488   21.4654 H   0  0  0  0  0  0  0  0  0  0  0  0
    9.9861   -1.0799   22.3679 H   0  0  0  0  0  0  0  0  0  0  0  0
    9.7619    0.2023   23.3539 H   0  0  0  0  0  0  0  0  0  0  0  0
    8.2184   -0.4003   18.5249 H   0  0  0  0  0  0  0  0  0  0  0  0
    5.6439    0.9307   22.2066 H   0  0  0  0  0  0  0  0  0  0  0  0
    4.9554    1.4090   16.9404 H   0  0  0  0  0  0  0  0  0  0  0  0
    3.2179    2.3325   18.4030 H   0  0  0  0  0  0  0  0  0  0  0  0
    3.5538    2.0687   22.4409 H   0  0  0  0  0  0  0  0  0  0  0  0
  1  2  1  0  0  0  0
  2  3  2  0  0  0  0
  2  4  1  0  0  0  0
  3  5  1  0  0  0  0
  3  6  1  0  0  0  0
  4  7  2  0  0  0  0
  6  8  2  0  0  0  0
  7  9  1  0  0  0  0
  9 10  1  0  0  0  0
 10 11  1  0  0  0  0
 11 12  1  0  0  0  0
 11 13  1  0  0  0  0
 12 14  1  0  0  0  0
 13 15  1  0  0  0  0
 14 16  1  0  0  0  0
 15 17  2  0  0  0  0
 16 18  1  0  0  0  0
 16 19  2  0  0  0  0
 18 20  1  0  0  0  0
 18 21  2  0  0  0  0
 19 22  1  0  0  0  0
 20 23  1  0  0  0  0
 20 24  2  0  0  0  0
 21 25  1  0  0  0  0
 24 26  1  0  0  0  0
  7  8  1  0  0  0  0
 14 15  1  0  0  0  0
 22 23  2  0  0  0  0
 25 26  2  0  0  0  0
  4 27  1  0  0  0  0
  6 28  1  0  0  0  0
  8 29  1  0  0  0  0
  9 30  1  0  0  0  0
  9 31  1  0  0  0  0
 10 32  1  0  0  0  0
 10 33  1  0  0  0  0
 11 34  1  0  0  0  0
 12 35  1  0  0  0  0
 12 36  1  0  0  0  0
 13 37  1  0  0  0  0
 13 38  1  0  0  0  0
 19 39  1  0  0  0  0
 21 40  1  0  0  0  0
 23 41  1  0  0  0  0
 24 42  1  0  0  0  0
 25 43  1  0  0  0  0
M  END
> <BIOSOLVEIT.HYDE_ESTIMATED_AFFINITY_LOWER_BOUNDARY [nM]>
16790.877863

> <BIOSOLVEIT.HYDE_ESTIMATED_AFFINITY_UPPER_BOUNDARY [nM]>
1668272.991200

> <BIOSOLVEIT.HYDE_LIGAND_EFFICIENCY range: ++, +, 0, -, -->
--

> <BIOSOLVEIT.HYDE_LIGAND_LIPOPHILIC_EFFICIENCY range: ++, +, 0, -, -->
--

> <BIOSOLVEIT.INTER_CLASH range: red, yellow, green>
green

> <BIOSOLVEIT.INTRA_CLASH range: red, yellow, green>
green

> <BIOSOLVEIT.LOGP>
4.9223

> <BIOSOLVEIT.MOLECULAR WEIGHT>
386.28

> <BIOSOLVEIT.MOLECULE_CHECKSUM>
LTIxLjU1NTM7MC44MjkwNTE=

> <BIOSOLVEIT.TORSION_QUALITY range: red, yellow, green, not rotatable>
green

> <BIOSOLVEIT.TPSA>
46.09

> <BIOSOLVEIT.SEESAR_FAVORITE>
favorite

> <smc_score>
0.688

> <QED_score>
0.639

> <distance>
0.55

> <SimilarityPheSA_1>
0.685

> <Smiles>
O=C1CC(CCc2ccc(Cl)c(Cl)c2)CN1c1cncc2cnccc12

> <Similarity_SkelSpheres>
0.816

> <Cluster No>
398.0

> <QueryID>
MAT-POS-f7918075-5

> <SimilarityPheSA>
0.6847

> <Postera series>
3-aminopyridine-like

> <PDB_code>
Mpro-x11499

> <Approach>
DGM_focussed_RL

> <ID>
20210618_705

> <SimilarityPheSA_2>
0.865

> <OPTIBRIUM.logD>
3.79392

> <OPTIBRIUM.BBB category>
+

> <OPTIBRIUM.logP>
3.79392

> <OPTIBRIUM.P-gp category>
no

> <OPTIBRIUM.logS>
0.168857

> <OPTIBRIUM.HIA category>
+

> <OPTIBRIUM.PPB90 category>
high

> <OPTIBRIUM.2D6 affinity category>
medium

> <OPTIBRIUM.hERG pIC50>
5.20949

> <OPTIBRIUM.2C9 pKi>
5.53082

> <OPTIBRIUM.BBB log([brain]:[blood])>
-0.336391

> <OPTIBRIUM.logS @ pH7.4>
0.168857

$$$$
Compound 706_1_010
haSeeSAR  07122111353D 1   1.00000     0.00000     0
SeeSAR 11.0.2 hazemaj
 43 46  0  0  0  0            999 V2000
    5.4646    1.6618   29.5215 Cl  0  0  0  0  0  0  0  0  0  0  0  0
    6.1601    2.1054   27.9438 C   0  0  0  0  0  0  0  0  0  0  0  0
    6.0049    3.3977   27.4539 C   0  0  0  0  0  0  0  0  0  0  0  0
    6.8574    1.1510   27.2122 C   0  0  0  0  0  0  0  0  0  0  0  0
    5.1067    4.6007   28.4099 Cl  0  0  0  0  0  0  0  0  0  0  0  0
    6.5457    3.7555   26.2229 C   0  0  0  0  0  0  0  0  0  0  0  0
    7.3952    1.5139   25.9824 C   0  0  0  0  0  0  0  0  0  0  0  0
    7.2434    2.8042   25.4862 C   0  0  0  0  0  0  0  0  0  0  0  0
    8.1614    0.4831   25.1689 C   0  0  0  0  0  0  0  0  0  0  0  0
    7.2642   -0.0647   24.0712 C   0  0  0  0  0  0  0  0  0  0  0  0
    8.0630   -1.0055   23.1870 C   0  0  1  0  0  0  0  0  0  0  0  0
    7.3761   -1.3147   21.8732 C   0  0  0  0  0  0  0  0  0  0  0  0
    9.3352   -0.3800   22.6623 C   0  0  0  0  0  0  0  0  0  0  0  0
    7.6685   -0.1496   21.0326 N   0  0  0  0  0  0  0  0  0  0  0  0
    8.8451    0.4397   21.4847 C   0  0  0  0  0  0  0  0  0  0  0  0
    6.8884    0.2973   19.9588 C   0  0  0  0  0  0  0  0  0  0  0  0
    9.3809    1.4330   21.0258 O   0  0  0  0  0  0  0  0  0  0  0  0
    5.6737    0.9574   20.1312 C   0  0  0  0  0  0  0  0  0  0  0  0
    7.3481    0.0715   18.6654 C   0  0  0  0  0  0  0  0  0  0  0  0
    4.9530    1.3723   19.0175 C   0  0  0  0  0  0  0  0  0  0  0  0
    5.1433    1.2213   21.3909 C   0  0  0  0  0  0  0  0  0  0  0  0
    6.6364    0.4799   17.6043 N   0  0  0  0  0  0  0  0  0  0  0  0
    5.4649    1.1162   17.7496 C   0  0  0  0  0  0  0  0  0  0  0  0
    3.7410    2.0309   19.2001 C   0  0  0  0  0  0  0  0  0  0  0  0
    3.9276    1.8827   21.5323 C   0  0  0  0  0  0  0  0  0  0  0  0
    3.2652    2.2665   20.4316 N   0  0  0  0  0  0  0  0  0  0  0  0
    6.9701    0.2215   27.5634 H   0  0  0  0  0  0  0  0  0  0  0  0
    6.4340    4.6852   25.8720 H   0  0  0  0  0  0  0  0  0  0  0  0
    7.6360    3.0480   24.5994 H   0  0  0  0  0  0  0  0  0  0  0  0
    8.4516   -0.2643   25.7664 H   0  0  0  0  0  0  0  0  0  0  0  0
    8.9656    0.9133   24.7586 H   0  0  0  0  0  0  0  0  0  0  0  0
    6.9116    0.6917   23.5203 H   0  0  0  0  0  0  0  0  0  0  0  0
    6.5002   -0.5620   24.4823 H   0  0  0  0  0  0  0  0  0  0  0  0
    8.2695   -1.8517   23.6781 H   0  0  0  0  0  0  0  0  0  0  0  0
    6.3902   -1.4193   22.0044 H   0  0  0  0  0  0  0  0  0  0  0  0
    7.7484   -2.1486   21.4659 H   0  0  0  0  0  0  0  0  0  0  0  0
    9.9860   -1.0798   22.3682 H   0  0  0  0  0  0  0  0  0  0  0  0
    9.7619    0.2026   23.3540 H   0  0  0  0  0  0  0  0  0  0  0  0
    8.2185   -0.4004   18.5251 H   0  0  0  0  0  0  0  0  0  0  0  0
    5.6438    0.9310   22.2066 H   0  0  0  0  0  0  0  0  0  0  0  0
    4.9555    1.4088   16.9404 H   0  0  0  0  0  0  0  0  0  0  0  0
    3.2180    2.3325   18.4029 H   0  0  0  0  0  0  0  0  0  0  0  0
    3.5537    2.0690   22.4408 H   0  0  0  0  0  0  0  0  0  0  0  0
  1  2  1  0  0  0  0
  2  3  2  0  0  0  0
  2  4  1  0  0  0  0
  3  5  1  0  0  0  0
  3  6  1  0  0  0  0
  4  7  2  0  0  0  0
  6  8  2  0  0  0  0
  7  9  1  0  0  0  0
  9 10  1  0  0  0  0
 10 11  1  0  0  0  0
 11 12  1  0  0  0  0
 11 13  1  0  0  0  0
 12 14  1  0  0  0  0
 13 15  1  0  0  0  0
 14 16  1  0  0  0  0
 15 17  2  0  0  0  0
 16 18  1  0  0  0  0
 16 19  2  0  0  0  0
 18 20  1  0  0  0  0
 18 21  2  0  0  0  0
 19 22  1  0  0  0  0
 20 23  1  0  0  0  0
 20 24  2  0  0  0  0
 21 25  1  0  0  0  0
 24 26  1  0  0  0  0
  7  8  1  0  0  0  0
 14 15  1  0  0  0  0
 22 23  2  0  0  0  0
 25 26  2  0  0  0  0
  4 27  1  0  0  0  0
  6 28  1  0  0  0  0
  8 29  1  0  0  0  0
  9 30  1  0  0  0  0
  9 31  1  0  0  0  0
 10 32  1  0  0  0  0
 10 33  1  0  0  0  0
 11 34  1  0  0  0  0
 12 35  1  0  0  0  0
 12 36  1  0  0  0  0
 13 37  1  0  0  0  0
 13 38  1  0  0  0  0
 19 39  1  0  0  0  0
 21 40  1  0  0  0  0
 23 41  1  0  0  0  0
 24 42  1  0  0  0  0
 25 43  1  0  0  0  0
M  END
> <BIOSOLVEIT.HYDE_ESTIMATED_AFFINITY_LOWER_BOUNDARY [nM]>
16793.056124

> <BIOSOLVEIT.HYDE_ESTIMATED_AFFINITY_UPPER_BOUNDARY [nM]>
1668489.414360

> <BIOSOLVEIT.HYDE_LIGAND_EFFICIENCY range: ++, +, 0, -, -->
--

> <BIOSOLVEIT.HYDE_LIGAND_LIPOPHILIC_EFFICIENCY range: ++, +, 0, -, -->
--

> <BIOSOLVEIT.INTER_CLASH range: red, yellow, green>
green

> <BIOSOLVEIT.INTRA_CLASH range: red, yellow, green>
green

> <BIOSOLVEIT.LOGP>
4.9223

> <BIOSOLVEIT.MOLECULAR WEIGHT>
386.28

> <BIOSOLVEIT.MOLECULE_CHECKSUM>
LTIxLjU1NTswLjgyOTAzOQ==

> <BIOSOLVEIT.TORSION_QUALITY range: red, yellow, green, not rotatable>
green

> <BIOSOLVEIT.TPSA>
46.09

> <BIOSOLVEIT.SEESAR_FAVORITE>
favorite

> <smc_score>
0.688

> <QED_score>
0.639

> <distance>
0.55

> <SimilarityPheSA_1>
0.685

> <Smiles>
O=C1CC(CCc2ccc(Cl)c(Cl)c2)CN1c1cncc2cnccc12

> <Similarity_SkelSpheres>
0.816

> <Cluster No>
398.0

> <QueryID>
MAT-POS-f7918075-5

> <SimilarityPheSA>
0.6847

> <Postera series>
3-aminopyridine-like

> <PDB_code>
Mpro-x11499

> <Approach>
DGM_focussed_RL

> <ID>
20210618_705

> <SimilarityPheSA_2>
0.865

> <OPTIBRIUM.logD>
3.79392

> <OPTIBRIUM.BBB category>
+

> <OPTIBRIUM.logP>
3.79392

> <OPTIBRIUM.P-gp category>
no

> <OPTIBRIUM.logS>
0.168857

> <OPTIBRIUM.HIA category>
+

> <OPTIBRIUM.PPB90 category>
high

> <OPTIBRIUM.2D6 affinity category>
medium

> <OPTIBRIUM.hERG pIC50>
5.20949

> <OPTIBRIUM.2C9 pKi>
5.53082

> <OPTIBRIUM.BBB log([brain]:[blood])>
-0.336391

> <OPTIBRIUM.logS @ pH7.4>
0.168857

$$$$
Compound 706_1_009
haSeeSAR  07122111353D 1   1.00000     0.00000     0
SeeSAR 11.0.2 hazemaj
 43 46  0  0  0  0            999 V2000
    6.3406    5.3908   25.6194 Cl  0  0  0  0  0  0  0  0  0  0  0  0
    6.5432    3.7341   26.2391 C   0  0  0  0  0  0  0  0  0  0  0  0
    5.9981    3.3799   27.4685 C   0  0  0  0  0  0  0  0  0  0  0  0
    7.2469    2.8035   25.4833 C   0  0  0  0  0  0  0  0  0  0  0  0
    5.1024    4.5905   28.4170 Cl  0  0  0  0  0  0  0  0  0  0  0  0
    6.1490    2.0875   27.9615 C   0  0  0  0  0  0  0  0  0  0  0  0
    7.3951    1.5137   25.9810 C   0  0  0  0  0  0  0  0  0  0  0  0
    6.8532    1.1528   27.2100 C   0  0  0  0  0  0  0  0  0  0  0  0
    8.1612    0.4827   25.1678 C   0  0  0  0  0  0  0  0  0  0  0  0
    7.2637   -0.0661   24.0708 C   0  0  0  0  0  0  0  0  0  0  0  0
    8.0626   -1.0066   23.1863 C   0  0  1  0  0  0  0  0  0  0  0  0
    7.3758   -1.3155   21.8725 C   0  0  0  0  0  0  0  0  0  0  0  0
    9.3347   -0.3809   22.6619 C   0  0  0  0  0  0  0  0  0  0  0  0
    7.6681   -0.1501   21.0322 N   0  0  0  0  0  0  0  0  0  0  0  0
    8.8447    0.4391   21.4845 C   0  0  0  0  0  0  0  0  0  0  0  0
    6.8881    0.2970   19.9585 C   0  0  0  0  0  0  0  0  0  0  0  0
    9.3805    1.4325   21.0259 O   0  0  0  0  0  0  0  0  0  0  0  0
    5.6735    0.9572   20.1310 C   0  0  0  0  0  0  0  0  0  0  0  0
    7.3478    0.0715   18.6650 C   0  0  0  0  0  0  0  0  0  0  0  0
    4.9527    1.3724   19.0173 C   0  0  0  0  0  0  0  0  0  0  0  0
    5.1431    1.2208   21.3908 C   0  0  0  0  0  0  0  0  0  0  0  0
    6.6361    0.4802   17.6040 N   0  0  0  0  0  0  0  0  0  0  0  0
    5.4646    1.1165   17.7494 C   0  0  0  0  0  0  0  0  0  0  0  0
    3.7408    2.0310   19.2001 C   0  0  0  0  0  0  0  0  0  0  0  0
    3.9274    1.8823   21.5323 C   0  0  0  0  0  0  0  0  0  0  0  0
    3.2650    2.2663   20.4317 N   0  0  0  0  0  0  0  0  0  0  0  0
    7.6389    3.0567   24.5989 H   0  0  0  0  0  0  0  0  0  0  0  0
    5.7561    1.8339   28.8453 H   0  0  0  0  0  0  0  0  0  0  0  0
    6.9699    0.2209   27.5533 H   0  0  0  0  0  0  0  0  0  0  0  0
    8.4518   -0.2643   25.7657 H   0  0  0  0  0  0  0  0  0  0  0  0
    8.9651    0.9128   24.7568 H   0  0  0  0  0  0  0  0  0  0  0  0
    6.9102    0.6899   23.5199 H   0  0  0  0  0  0  0  0  0  0  0  0
    6.5003   -0.5638   24.4826 H   0  0  0  0  0  0  0  0  0  0  0  0
    8.2691   -1.8530   23.6773 H   0  0  0  0  0  0  0  0  0  0  0  0
    6.3899   -1.4201   22.0036 H   0  0  0  0  0  0  0  0  0  0  0  0
    7.7481   -2.1493   21.4649 H   0  0  0  0  0  0  0  0  0  0  0  0
    9.9856   -1.0806   22.3676 H   0  0  0  0  0  0  0  0  0  0  0  0
    9.7615    0.2015   23.3538 H   0  0  0  0  0  0  0  0  0  0  0  0
    8.2182   -0.4004   18.5246 H   0  0  0  0  0  0  0  0  0  0  0  0
    5.6435    0.9303   22.2064 H   0  0  0  0  0  0  0  0  0  0  0  0
    4.9553    1.4094   16.9402 H   0  0  0  0  0  0  0  0  0  0  0  0
    3.2178    2.3328   18.4029 H   0  0  0  0  0  0  0  0  0  0  0  0
    3.5535    2.0684   22.4408 H   0  0  0  0  0  0  0  0  0  0  0  0
  1  2  1  0  0  0  0
  2  3  2  0  0  0  0
  2  4  1  0  0  0  0
  3  5  1  0  0  0  0
  3  6  1  0  0  0  0
  4  7  2  0  0  0  0
  6  8  2  0  0  0  0
  7  9  1  0  0  0  0
  9 10  1  0  0  0  0
 10 11  1  0  0  0  0
 11 12  1  0  0  0  0
 11 13  1  0  0  0  0
 12 14  1  0  0  0  0
 13 15  1  0  0  0  0
 14 16  1  0  0  0  0
 15 17  2  0  0  0  0
 16 18  1  0  0  0  0
 16 19  2  0  0  0  0
 18 20  1  0  0  0  0
 18 21  2  0  0  0  0
 19 22  1  0  0  0  0
 20 23  1  0  0  0  0
 20 24  2  0  0  0  0
 21 25  1  0  0  0  0
 24 26  1  0  0  0  0
  7  8  1  0  0  0  0
 14 15  1  0  0  0  0
 22 23  2  0  0  0  0
 25 26  2  0  0  0  0
  4 27  1  0  0  0  0
  6 28  1  0  0  0  0
  8 29  1  0  0  0  0
  9 30  1  0  0  0  0
  9 31  1  0  0  0  0
 10 32  1  0  0  0  0
 10 33  1  0  0  0  0
 11 34  1  0  0  0  0
 12 35  1  0  0  0  0
 12 36  1  0  0  0  0
 13 37  1  0  0  0  0
 13 38  1  0  0  0  0
 19 39  1  0  0  0  0
 21 40  1  0  0  0  0
 23 41  1  0  0  0  0
 24 42  1  0  0  0  0
 25 43  1  0  0  0  0
M  END
> <BIOSOLVEIT.HYDE_ESTIMATED_AFFINITY_LOWER_BOUNDARY [nM]>
16942.000459

> <BIOSOLVEIT.HYDE_ESTIMATED_AFFINITY_UPPER_BOUNDARY [nM]>
1683287.914678

> <BIOSOLVEIT.HYDE_LIGAND_EFFICIENCY range: ++, +, 0, -, -->
--

> <BIOSOLVEIT.HYDE_LIGAND_LIPOPHILIC_EFFICIENCY range: ++, +, 0, -, -->
--

> <BIOSOLVEIT.INTER_CLASH range: red, yellow, green>
green

> <BIOSOLVEIT.INTRA_CLASH range: red, yellow, green>
green

> <BIOSOLVEIT.LOGP>
4.9223

> <BIOSOLVEIT.MOLECULAR WEIGHT>
386.28

> <BIOSOLVEIT.MOLECULE_CHECKSUM>
LTIxLjUzMzE7MC44MjgxOTc=

> <BIOSOLVEIT.TORSION_QUALITY range: red, yellow, green, not rotatable>
green

> <BIOSOLVEIT.TPSA>
46.09

> <BIOSOLVEIT.SEESAR_FAVORITE>
favorite

> <smc_score>
0.688

> <QED_score>
0.639

> <distance>
0.55

> <SimilarityPheSA_1>
0.685

> <Smiles>
O=C1CC(CCc2ccc(Cl)c(Cl)c2)CN1c1cncc2cnccc12

> <Similarity_SkelSpheres>
0.816

> <Cluster No>
398.0

> <QueryID>
MAT-POS-f7918075-5

> <SimilarityPheSA>
0.6847

> <Postera series>
3-aminopyridine-like

> <PDB_code>
Mpro-x11499

> <Approach>
DGM_focussed_RL

> <ID>
20210618_705

> <SimilarityPheSA_2>
0.865

> <OPTIBRIUM.logD>
3.79392

> <OPTIBRIUM.BBB category>
+

> <OPTIBRIUM.logP>
3.79392

> <OPTIBRIUM.P-gp category>
no

> <OPTIBRIUM.logS>
0.168857

> <OPTIBRIUM.HIA category>
+

> <OPTIBRIUM.PPB90 category>
high

> <OPTIBRIUM.2D6 affinity category>
medium

> <OPTIBRIUM.hERG pIC50>
5.20949

> <OPTIBRIUM.2C9 pKi>
5.53082

> <OPTIBRIUM.BBB log([brain]:[blood])>
-0.336391

> <OPTIBRIUM.logS @ pH7.4>
0.168857

$$$$
Compound 586_1_10
haSeeSAR  07122111353D 1   1.00000     0.00000     0
SeeSAR 11.0.2 hazemaj
 36 39  0  0  0  0            999 V2000
    8.7485   -0.1007   27.0052 Cl  0  0  0  0  0  0  0  0  0  0  0  0
    8.8978   -1.5147   25.9334 C   0  0  0  0  0  0  0  0  0  0  0  0
    8.8094   -2.7996   26.4594 C   0  0  0  0  0  0  0  0  0  0  0  0
    9.0810   -1.3636   24.5609 C   0  0  0  0  0  0  0  0  0  0  0  0
    8.5321   -3.0335   28.2025 Cl  0  0  0  0  0  0  0  0  0  0  0  0
    8.9379   -3.8999   25.6190 C   0  0  0  0  0  0  0  0  0  0  0  0
    9.1892   -2.4359   23.6999 C   0  0  0  0  0  0  0  0  0  0  0  0
    9.1444   -0.0874   23.7380 C   0  0  0  0  0  0  0  0  0  0  0  0
    9.1350   -3.7093   24.2538 C   0  0  0  0  0  0  0  0  0  0  0  0
    9.3189   -1.9570   22.4396 O   0  0  0  0  0  0  0  0  0  0  0  0
    9.6699   -0.5876   22.4135 C   0  0  1  0  0  0  0  0  0  0  0  0
    8.8233    0.0590   21.3306 C   0  0  0  0  0  0  0  0  0  0  0  0
    9.1475    1.1521   20.8664 O   0  0  0  0  0  0  0  0  0  0  0  0
    7.7375   -0.5526   20.8863 N   0  0  0  0  0  0  0  0  0  0  0  0
    6.9572    0.0433   19.8883 C   0  0  0  0  0  0  0  0  0  0  0  0
    5.7836    0.7242   20.1934 C   0  0  0  0  0  0  0  0  0  0  0  0
    7.3459   -0.0365   18.5556 C   0  0  0  0  0  0  0  0  0  0  0  0
    5.0417    1.2977   19.1931 C   0  0  0  0  0  0  0  0  0  0  0  0
    5.0986    0.9939   21.3998 C   0  0  0  0  0  0  0  0  0  0  0  0
    6.6051    0.5290   17.5911 N   0  0  0  0  0  0  0  0  0  0  0  0
    3.9598    1.8782   19.7837 N   0  0  0  0  0  0  0  0  0  0  0  0
    5.4718    1.1881   17.8744 C   0  0  0  0  0  0  0  0  0  0  0  0
    4.0283    1.6815   21.0786 N   0  0  0  0  0  0  0  0  0  0  0  0
    2.8860    2.6071   19.0916 C   0  0  0  0  0  0  0  0  0  0  0  0
    8.8889   -4.8256   25.9940 H   0  0  0  0  0  0  0  0  0  0  0  0
    9.7686    0.5777   24.1479 H   0  0  0  0  0  0  0  0  0  0  0  0
    8.2386    0.3240   23.6365 H   0  0  0  0  0  0  0  0  0  0  0  0
    9.2399   -4.5062   23.6589 H   0  0  0  0  0  0  0  0  0  0  0  0
   10.6506   -0.4331   22.2936 H   0  0  0  0  0  0  0  0  0  0  0  0
    7.4742   -1.4405   21.2634 H   0  0  0  0  0  0  0  0  0  0  0  0
    8.1867   -0.5206   18.3137 H   0  0  0  0  0  0  0  0  0  0  0  0
    5.3757    0.7150   22.3192 H   0  0  0  0  0  0  0  0  0  0  0  0
    4.9359    1.6007   17.1378 H   0  0  0  0  0  0  0  0  0  0  0  0
    2.2170    2.9296   19.7611 H   0  0  0  0  0  0  0  0  0  0  0  0
    3.2744    3.3895   18.6047 H   0  0  0  0  0  0  0  0  0  0  0  0
    2.4368    1.9975   18.4384 H   0  0  0  0  0  0  0  0  0  0  0  0
  1  2  1  0  0  0  0
  2  3  2  0  0  0  0
  2  4  1  0  0  0  0
  3  5  1  0  0  0  0
  3  6  1  0  0  0  0
  4  7  2  0  0  0  0
  4  8  1  0  0  0  0
  6  9  2  0  0  0  0
  7 10  1  0  0  0  0
  8 11  1  0  0  0  0
 11 12  1  0  0  0  0
 12 13  2  0  0  0  0
 12 14  1  0  0  0  0
 14 15  1  0  0  0  0
 15 16  2  0  0  0  0
 15 17  1  0  0  0  0
 16 18  1  0  0  0  0
 16 19  1  0  0  0  0
 17 20  2  0  0  0  0
 18 21  1  0  0  0  0
 18 22  2  0  0  0  0
 19 23  2  0  0  0  0
 21 24  1  0  0  0  0
  7  9  1  0  0  0  0
 10 11  1  0  0  0  0
 20 22  1  0  0  0  0
 21 23  1  0  0  0  0
  6 25  1  0  0  0  0
  8 26  1  0  0  0  0
  8 27  1  0  0  0  0
  9 28  1  0  0  0  0
 11 29  1  0  0  0  0
 14 30  1  0  0  0  0
 17 31  1  0  0  0  0
 19 32  1  0  0  0  0
 22 33  1  0  0  0  0
 24 34  1  0  0  0  0
 24 35  1  0  0  0  0
 24 36  1  0  0  0  0
M  END
> <BIOSOLVEIT.HYDE_ESTIMATED_AFFINITY_LOWER_BOUNDARY [nM]>
17992.063681

> <BIOSOLVEIT.HYDE_ESTIMATED_AFFINITY_UPPER_BOUNDARY [nM]>
1787617.904230

> <BIOSOLVEIT.HYDE_LIGAND_EFFICIENCY range: ++, +, 0, -, -->
-

> <BIOSOLVEIT.HYDE_LIGAND_LIPOPHILIC_EFFICIENCY range: ++, +, 0, -, -->
--

> <BIOSOLVEIT.INTER_CLASH range: red, yellow, green>
green

> <BIOSOLVEIT.INTRA_CLASH range: red, yellow, green>
green

> <BIOSOLVEIT.LOGP>
3.2173

> <BIOSOLVEIT.MOLECULAR WEIGHT>
363.203

> <BIOSOLVEIT.MOLECULE_CHECKSUM>
LTIxLjM4NDswLjg5MTAwMg==

> <BIOSOLVEIT.TORSION_QUALITY range: red, yellow, green, not rotatable>
yellow

> <BIOSOLVEIT.TPSA>
69.04

> <BIOSOLVEIT.SEESAR_FAVORITE>
favorite

> <smc_score>
0.625

> <QED_score>
0.759

> <distance>
0.625

> <SimilarityPheSA_1>
0.726

> <Smiles>
Cn1ncc2c(NC(=O)C3Cc4c(ccc(Cl)c4Cl)O3)cncc21

> <Similarity_SkelSpheres>
0.641

> <Cluster No>
314.0

> <QueryID>
ADA-UCB-6c2cb422-1

> <SimilarityPheSA>
0.7256

> <Postera series>
3-aminopyridine-like

> <PDB_code>
Mpro-x10959

> <Approach>
DGM_focussed_RL

> <ID>
20210618_585

> <SimilarityPheSA_2>
0.845

> <OPTIBRIUM.logD>
3.08844

> <OPTIBRIUM.BBB category>
-

> <OPTIBRIUM.logP>
3.08844

> <OPTIBRIUM.P-gp category>
no

> <OPTIBRIUM.logS>
0.801844

> <OPTIBRIUM.HIA category>
+

> <OPTIBRIUM.PPB90 category>
high

> <OPTIBRIUM.2D6 affinity category>
high

> <OPTIBRIUM.hERG pIC50>
4.85233

> <OPTIBRIUM.2C9 pKi>
5.6228

> <OPTIBRIUM.BBB log([brain]:[blood])>
-0.406305

> <OPTIBRIUM.logS @ pH7.4>
0.801844

$$$$
Compound 115_1_008
haSeeSAR  07122111353D 1   1.00000     0.00000     0
SeeSAR 11.0.2 hazemaj
 54 57  0  0  0  0            999 V2000
    8.2613    0.6324   26.6946 Cl  0  0  0  0  0  0  0  0  0  0  0  0
    7.9186   -0.8847   25.8290 C   0  0  0  0  0  0  0  0  0  0  0  0
    7.9804   -2.1040   26.4957 C   0  0  0  0  0  0  0  0  0  0  0  0
    7.5872   -0.8553   24.4777 C   0  0  0  0  0  0  0  0  0  0  0  0
    8.4059   -2.1327   28.2237 Cl  0  0  0  0  0  0  0  0  0  0  0  0
    7.7140   -3.2944   25.8266 C   0  0  0  0  0  0  0  0  0  0  0  0
    7.3189   -2.0414   23.8018 C   0  0  0  0  0  0  0  0  0  0  0  0
    7.5174    0.4722   23.7405 C   0  0  0  0  0  0  0  0  0  0  0  0
    7.3823   -3.2559   24.4764 C   0  0  0  0  0  0  0  0  0  0  0  0
    8.6410    0.5688   22.7976 N   0  0  0  0  0  0  0  0  0  0  0  0
    8.4304    0.4199   21.5001 C   0  0  0  0  0  0  0  0  0  0  0  0
    9.9987    0.8308   23.2966 C   0  0  0  0  0  0  0  0  0  0  0  0
    9.1056    1.0549   20.6900 O   0  0  0  0  0  0  0  0  0  0  0  0
    7.3546   -0.5354   21.0095 C   0  0  0  0  0  0  0  0  0  0  0  0
   10.5502   -0.4264   23.9488 C   0  0  1  0  0  0  0  0  0  0  0  0
    6.5973    0.1035   19.8548 C   0  0  0  0  0  0  0  0  0  0  0  0
   11.0138   -1.4598   22.9325 C   0  0  0  0  0  0  0  0  0  0  0  0
   11.7413   -0.1461   24.8526 C   0  0  0  0  0  0  0  0  0  0  0  0
    5.4556    0.8830   20.0364 C   0  0  0  0  0  0  0  0  0  0  0  0
    7.0740   -0.1058   18.5644 C   0  0  0  0  0  0  0  0  0  0  0  0
   12.2786   -1.0136   22.2156 C   0  0  0  0  0  0  0  0  0  0  0  0
   12.7995    0.6118   24.0659 C   0  0  0  0  0  0  0  0  0  0  0  0
    4.8184    1.4330   18.9285 C   0  0  0  0  0  0  0  0  0  0  0  0
    4.9207    1.1352   21.2981 C   0  0  0  0  0  0  0  0  0  0  0  0
    6.4438    0.4346   17.5108 N   0  0  0  0  0  0  0  0  0  0  0  0
   12.5753   -1.4819   21.1311 O   0  0  0  0  0  0  0  0  0  0  0  0
   13.1132   -0.0389   22.7812 N   0  0  0  0  0  0  0  0  0  0  0  0
    5.3441    1.1873   17.6640 C   0  0  0  0  0  0  0  0  0  0  0  0
    3.6783    2.2148   19.0811 C   0  0  0  0  0  0  0  0  0  0  0  0
    3.7817    1.9136   21.4739 C   0  0  0  0  0  0  0  0  0  0  0  0
    3.1629    2.4532   20.3508 C   0  0  0  0  0  0  0  0  0  0  0  0
    7.7606   -4.1679   26.3111 H   0  0  0  0  0  0  0  0  0  0  0  0
    7.0804   -2.0206   22.8309 H   0  0  0  0  0  0  0  0  0  0  0  0
    7.5696    1.2226   24.3994 H   0  0  0  0  0  0  0  0  0  0  0  0
    6.6546    0.5294   23.2380 H   0  0  0  0  0  0  0  0  0  0  0  0
    7.1883   -4.1066   23.9878 H   0  0  0  0  0  0  0  0  0  0  0  0
    9.9697    1.5701   23.9693 H   0  0  0  0  0  0  0  0  0  0  0  0
   10.5884    1.0970   22.5341 H   0  0  0  0  0  0  0  0  0  0  0  0
    6.7192   -0.7336   21.7557 H   0  0  0  0  0  0  0  0  0  0  0  0
    7.7800   -1.3856   20.6992 H   0  0  0  0  0  0  0  0  0  0  0  0
    9.8255   -0.8356   24.5034 H   0  0  0  0  0  0  0  0  0  0  0  0
   10.2896   -1.5979   22.2568 H   0  0  0  0  0  0  0  0  0  0  0  0
   11.1964   -2.3214   23.4062 H   0  0  0  0  0  0  0  0  0  0  0  0
   12.1232   -1.0104   25.1800 H   0  0  0  0  0  0  0  0  0  0  0  0
   11.4463    0.4050   25.6331 H   0  0  0  0  0  0  0  0  0  0  0  0
    7.8920   -0.6629   18.4215 H   0  0  0  0  0  0  0  0  0  0  0  0
   13.6344    0.6607   24.6143 H   0  0  0  0  0  0  0  0  0  0  0  0
   12.4649    1.5367   23.8850 H   0  0  0  0  0  0  0  0  0  0  0  0
    5.3695    0.7444   22.1018 H   0  0  0  0  0  0  0  0  0  0  0  0
   13.9482    0.2231   22.2973 H   0  0  0  0  0  0  0  0  0  0  0  0
    4.8964    1.5767   16.8591 H   0  0  0  0  0  0  0  0  0  0  0  0
    3.2290    2.6057   18.2778 H   0  0  0  0  0  0  0  0  0  0  0  0
    3.4150    2.0820   22.3888 H   0  0  0  0  0  0  0  0  0  0  0  0
    2.3430    3.0155   20.4569 H   0  0  0  0  0  0  0  0  0  0  0  0
  1  2  1  0  0  0  0
  2  3  2  0  0  0  0
  2  4  1  0  0  0  0
  3  5  1  0  0  0  0
  3  6  1  0  0  0  0
  4  7  2  0  0  0  0
  4  8  1  0  0  0  0
  6  9  2  0  0  0  0
  8 10  1  0  0  0  0
 10 11  1  0  0  0  0
 10 12  1  0  0  0  0
 11 13  2  0  0  0  0
 11 14  1  0  0  0  0
 12 15  1  0  0  0  0
 14 16  1  0  0  0  0
 15 17  1  0  0  0  0
 15 18  1  0  0  0  0
 16 19  1  0  0  0  0
 16 20  2  0  0  0  0
 17 21  1  0  0  0  0
 18 22  1  0  0  0  0
 19 23  1  0  0  0  0
 19 24  2  0  0  0  0
 20 25  1  0  0  0  0
 21 26  2  0  0  0  0
 21 27  1  0  0  0  0
 23 28  1  0  0  0  0
 23 29  2  0  0  0  0
 24 30  1  0  0  0  0
 29 31  1  0  0  0  0
  7  9  1  0  0  0  0
 22 27  1  0  0  0  0
 25 28  2  0  0  0  0
 30 31  2  0  0  0  0
  6 32  1  0  0  0  0
  7 33  1  0  0  0  0
  8 34  1  0  0  0  0
  8 35  1  0  0  0  0
  9 36  1  0  0  0  0
 12 37  1  0  0  0  0
 12 38  1  0  0  0  0
 14 39  1  0  0  0  0
 14 40  1  0  0  0  0
 15 41  1  0  0  0  0
 17 42  1  0  0  0  0
 17 43  1  0  0  0  0
 18 44  1  0  0  0  0
 18 45  1  0  0  0  0
 20 46  1  0  0  0  0
 22 47  1  0  0  0  0
 22 48  1  0  0  0  0
 24 49  1  0  0  0  0
 27 50  1  0  0  0  0
 28 51  1  0  0  0  0
 29 52  1  0  0  0  0
 30 53  1  0  0  0  0
 31 54  1  0  0  0  0
M  END
> <BIOSOLVEIT.HYDE_ESTIMATED_AFFINITY_LOWER_BOUNDARY [nM]>
18289.734169

> <BIOSOLVEIT.HYDE_ESTIMATED_AFFINITY_UPPER_BOUNDARY [nM]>
1817193.227154

> <BIOSOLVEIT.HYDE_LIGAND_EFFICIENCY range: ++, +, 0, -, -->
--

> <BIOSOLVEIT.HYDE_LIGAND_LIPOPHILIC_EFFICIENCY range: ++, +, 0, -, -->
--

> <BIOSOLVEIT.INTER_CLASH range: red, yellow, green>
green

> <BIOSOLVEIT.INTRA_CLASH range: red, yellow, green>
green

> <BIOSOLVEIT.LOGP>
4.6391

> <BIOSOLVEIT.MOLECULAR WEIGHT>
456.371

> <BIOSOLVEIT.MOLECULE_CHECKSUM>
LTIxLjM0MzQ7MC42ODg0OTY=

> <BIOSOLVEIT.TORSION_QUALITY range: red, yellow, green, not rotatable>
green

> <BIOSOLVEIT.TPSA>
62.3

> <BIOSOLVEIT.SEESAR_FAVORITE>
favorite

> <smc_score>
0.563

> <QED_score>
0.588

> <distance>
0.577

> <SimilarityPheSA_1>
0.637

> <Smiles>
O=C1CC(CN(Cc2cccc(Cl)c2Cl)C(=O)Cc2cncc3ccccc23)CCN1

> <Similarity_SkelSpheres>
0.752

> <Cluster No>
53.0

> <QueryID>
ALP-POS-c59291d4-4

> <SimilarityPheSA>
0.6367

> <Postera series>
3-aminopyridine-like

> <PDB_code>
Mpro-x10820

> <Approach>
DGM_focussed_RL

> <ID>
20210618_114

> <SimilarityPheSA_2>
0.708

> <OPTIBRIUM.logD>
3.63568

> <OPTIBRIUM.BBB category>
-

> <OPTIBRIUM.logP>
3.63568

> <OPTIBRIUM.P-gp category>
yes

> <OPTIBRIUM.logS>
0.933199

> <OPTIBRIUM.HIA category>
+

> <OPTIBRIUM.PPB90 category>
high

> <OPTIBRIUM.2D6 affinity category>
high

> <OPTIBRIUM.hERG pIC50>
5.21475

> <OPTIBRIUM.2C9 pKi>
5.6623

> <OPTIBRIUM.BBB log([brain]:[blood])>
-0.305748

> <OPTIBRIUM.logS @ pH7.4>
0.933199

$$$$
Compound 413_1_01
haSeeSAR  07122111353D 1   1.00000     0.00000     0
SeeSAR 11.0.2 hazemaj
 47 50  0  0  0  0            999 V2000
    6.8327    1.2154   29.4522 Cl  0  0  0  0  0  0  0  0  0  0  0  0
    7.2236    1.2319   27.7155 C   0  0  0  0  0  0  0  0  0  0  0  0
    8.2483    0.4226   27.2358 C   0  0  0  0  0  0  0  0  0  0  0  0
    6.5008    2.0543   26.8575 C   0  0  0  0  0  0  0  0  0  0  0  0
    8.9378   -0.3688   28.0857 O   0  0  0  0  0  0  0  0  0  0  0  0
    8.5481    0.4401   25.8779 C   0  0  0  0  0  0  0  0  0  0  0  0
    6.8182    2.0565   25.5031 C   0  0  0  0  0  0  0  0  0  0  0  0
    9.9647    0.1843   28.8956 C   0  0  0  0  0  0  0  0  0  0  0  0
    7.8384    1.2546   25.0018 C   0  0  0  0  0  0  0  0  0  0  0  0
    9.6636   -0.4387   25.3343 C   0  0  0  0  0  0  0  0  0  0  0  0
    5.8992    3.1050   24.3967 Cl  0  0  0  0  0  0  0  0  0  0  0  0
   10.0349    0.0430   23.6295 S   0  0  0  0  0  0  0  0  0  0  0  0
   10.3733    1.4421   23.5890 O   0  0  0  0  0  0  0  0  0  0  0  0
   11.1453   -0.7336   23.1423 O   0  0  0  0  0  0  0  0  0  0  0  0
    8.6807   -0.2377   22.6568 N   0  0  0  0  0  0  0  0  0  0  0  0
    8.3296    0.4971   21.5261 C   0  0  0  0  0  0  0  0  0  0  0  0
    7.6677   -1.2748   22.9042 C   0  0  0  0  0  0  0  0  0  0  0  0
    8.9494    1.4756   21.1176 O   0  0  0  0  0  0  0  0  0  0  0  0
    7.1837   -0.0330   20.9397 N   0  0  0  0  0  0  0  0  0  0  0  0
    6.7814   -1.2345   21.6751 C   0  0  0  0  0  0  0  0  0  0  0  0
    6.5178    0.4846   19.8204 C   0  0  0  0  0  0  0  0  0  0  0  0
    7.0678    0.2712   18.5622 C   0  0  0  0  0  0  0  0  0  0  0  0
    5.3286    1.2025   19.9204 C   0  0  0  0  0  0  0  0  0  0  0  0
    8.2029   -0.4155   18.4846 F   0  0  0  0  0  0  0  0  0  0  0  0
    6.4613    0.7491   17.4650 N   0  0  0  0  0  0  0  0  0  0  0  0
    4.7132    1.6913   18.7716 C   0  0  0  0  0  0  0  0  0  0  0  0
    4.7260    1.4498   21.1515 C   0  0  0  0  0  0  0  0  0  0  0  0
    5.3158    1.4427   17.5428 C   0  0  0  0  0  0  0  0  0  0  0  0
    3.5249    2.4108   18.8452 C   0  0  0  0  0  0  0  0  0  0  0  0
    3.5386    2.1661   21.2537 C   0  0  0  0  0  0  0  0  0  0  0  0
    2.9461    2.6424   20.0890 C   0  0  0  0  0  0  0  0  0  0  0  0
    5.7655    2.6342   27.2084 H   0  0  0  0  0  0  0  0  0  0  0  0
   10.3680   -0.5357   29.4604 H   0  0  0  0  0  0  0  0  0  0  0  0
   10.6708    0.5846   28.3116 H   0  0  0  0  0  0  0  0  0  0  0  0
    9.5785    0.8935   29.4854 H   0  0  0  0  0  0  0  0  0  0  0  0
    8.0582    1.2636   24.0262 H   0  0  0  0  0  0  0  0  0  0  0  0
    9.3741   -1.3957   25.3546 H   0  0  0  0  0  0  0  0  0  0  0  0
   10.4817   -0.3259   25.8983 H   0  0  0  0  0  0  0  0  0  0  0  0
    7.1407   -1.0657   23.7279 H   0  0  0  0  0  0  0  0  0  0  0  0
    8.0968   -2.1727   23.0021 H   0  0  0  0  0  0  0  0  0  0  0  0
    5.8190   -1.1757   21.9403 H   0  0  0  0  0  0  0  0  0  0  0  0
    6.9235   -2.0507   21.1150 H   0  0  0  0  0  0  0  0  0  0  0  0
    5.1586    1.1032   21.9837 H   0  0  0  0  0  0  0  0  0  0  0  0
    4.8893    1.7858   16.7059 H   0  0  0  0  0  0  0  0  0  0  0  0
    3.0915    2.7577   18.0134 H   0  0  0  0  0  0  0  0  0  0  0  0
    3.1197    2.3353   22.1457 H   0  0  0  0  0  0  0  0  0  0  0  0
    2.0917    3.1588   20.1464 H   0  0  0  0  0  0  0  0  0  0  0  0
  1  2  1  0  0  0  0
  2  3  2  0  0  0  0
  2  4  1  0  0  0  0
  3  5  1  0  0  0  0
  3  6  1  0  0  0  0
  4  7  2  0  0  0  0
  5  8  1  0  0  0  0
  6  9  2  0  0  0  0
  6 10  1  0  0  0  0
  7 11  1  0  0  0  0
 10 12  1  0  0  0  0
 12 13  2  0  0  0  0
 12 14  2  0  0  0  0
 12 15  1  0  0  0  0
 15 16  1  0  0  0  0
 15 17  1  0  0  0  0
 16 18  2  0  0  0  0
 16 19  1  0  0  0  0
 17 20  1  0  0  0  0
 19 21  1  0  0  0  0
 21 22  2  0  0  0  0
 21 23  1  0  0  0  0
 22 24  1  0  0  0  0
 22 25  1  0  0  0  0
 23 26  1  0  0  0  0
 23 27  2  0  0  0  0
 25 28  2  0  0  0  0
 26 29  2  0  0  0  0
 27 30  1  0  0  0  0
 29 31  1  0  0  0  0
  7  9  1  0  0  0  0
 19 20  1  0  0  0  0
 26 28  1  0  0  0  0
 30 31  2  0  0  0  0
  4 32  1  0  0  0  0
  8 33  1  0  0  0  0
  8 34  1  0  0  0  0
  8 35  1  0  0  0  0
  9 36  1  0  0  0  0
 10 37  1  0  0  0  0
 10 38  1  0  0  0  0
 17 39  1  0  0  0  0
 17 40  1  0  0  0  0
 20 41  1  0  0  0  0
 20 42  1  0  0  0  0
 27 43  1  0  0  0  0
 28 44  1  0  0  0  0
 29 45  1  0  0  0  0
 30 46  1  0  0  0  0
 31 47  1  0  0  0  0
M  END
> <BIOSOLVEIT.HYDE_ESTIMATED_AFFINITY_LOWER_BOUNDARY [nM]>
18323.717806

> <BIOSOLVEIT.HYDE_ESTIMATED_AFFINITY_UPPER_BOUNDARY [nM]>
1820569.702433

> <BIOSOLVEIT.HYDE_LIGAND_EFFICIENCY range: ++, +, 0, -, -->
--

> <BIOSOLVEIT.HYDE_LIGAND_LIPOPHILIC_EFFICIENCY range: ++, +, 0, -, -->
--

> <BIOSOLVEIT.INTER_CLASH range: red, yellow, green>
green

> <BIOSOLVEIT.INTRA_CLASH range: red, yellow, green>
green

> <BIOSOLVEIT.LOGP>
5.1119

> <BIOSOLVEIT.MOLECULAR WEIGHT>
484.332

> <BIOSOLVEIT.MOLECULE_CHECKSUM>
LTIxLjMzODg7MC42ODgzNDc=

> <BIOSOLVEIT.TORSION_QUALITY range: red, yellow, green, not rotatable>
yellow

> <BIOSOLVEIT.TPSA>
79.81

> <BIOSOLVEIT.SEESAR_FAVORITE>
favorite

> <smc_score>
0.75

> <QED_score>
0.5

> <distance>
0.655

> <SimilarityPheSA_1>
0.638

> <Smiles>
COc1c(Cl)cc(Cl)cc1CS(=O)(=O)N1CCN(c2c(F)ncc3ccccc23)C1=O

> <Similarity_SkelSpheres>
0.701

> <Cluster No>
211.0

> <QueryID>
PET-UNK-c9c1e0d8-3

> <SimilarityPheSA>
0.6376

> <Postera series>
3-aminopyridine-like

> <PDB_code>
Mpro-x12587

> <Approach>
DGM_focussed_RL

> <ID>
20210618_412

> <SimilarityPheSA_2>
0.729

> <OPTIBRIUM.logD>
3.2737

> <OPTIBRIUM.BBB category>
-

> <OPTIBRIUM.logP>
3.2737

> <OPTIBRIUM.P-gp category>
yes

> <OPTIBRIUM.logS>
-0.435268

> <OPTIBRIUM.HIA category>
+

> <OPTIBRIUM.PPB90 category>
high

> <OPTIBRIUM.2D6 affinity category>
medium

> <OPTIBRIUM.hERG pIC50>
5.81388

> <OPTIBRIUM.2C9 pKi>
5.97686

> <OPTIBRIUM.BBB log([brain]:[blood])>
-0.733853

> <OPTIBRIUM.logS @ pH7.4>
-0.435268

$$$$
Compound 703_1_6
haSeeSAR  07122111353D 1   1.00000     0.00000     0
SeeSAR 11.0.2 hazemaj
 36 38  0  0  0  0            999 V2000
   12.9538   -1.8375   21.7554 Cl  0  0  0  0  0  0  0  0  0  0  0  0
   11.7573   -0.5859   22.1673 C   0  0  0  0  0  0  0  0  0  0  0  0
   12.1844    0.6319   22.6862 C   0  0  0  0  0  0  0  0  0  0  0  0
   10.4028   -0.8303   21.9685 C   0  0  0  0  0  0  0  0  0  0  0  0
   13.9213    0.9330   22.9353 Cl  0  0  0  0  0  0  0  0  0  0  0  0
   11.2660    1.6233   23.0157 C   0  0  0  0  0  0  0  0  0  0  0  0
    9.4880    0.1636   22.2987 C   0  0  0  0  0  0  0  0  0  0  0  0
    9.9097    1.3828   22.8187 C   0  0  0  0  0  0  0  0  0  0  0  0
    8.0061   -0.0992   22.0835 C   0  0  1  0  0  0  0  0  0  0  0  0
    7.7224   -0.1358   20.5902 C   0  0  0  0  0  0  0  0  0  0  0  0
    7.5760   -1.3766   22.7833 C   0  0  0  0  0  0  0  0  0  0  0  0
    8.3082    0.6395   19.8539 O   0  0  0  0  0  0  0  0  0  0  0  0
    6.7962   -1.0625   20.0830 N   0  0  0  0  0  0  0  0  0  0  0  0
    6.1259   -1.6300   22.4080 C   0  0  0  0  0  0  0  0  0  0  0  0
    6.1177   -2.0434   20.9480 C   0  0  0  0  0  0  0  0  0  0  0  0
    6.4941   -1.0778   18.6440 C   0  0  0  0  0  0  0  0  0  0  0  0
    5.8731    0.2519   18.2420 C   0  0  0  0  0  0  0  0  0  0  0  0
    6.1665    0.9534   17.1093 N   0  0  0  0  0  0  0  0  0  0  0  0
    4.9382    0.9317   18.9617 C   0  0  0  0  0  0  0  0  0  0  0  0
    5.4320    2.0434   17.1186 C   0  0  0  0  0  0  0  0  0  0  0  0
    4.6626    2.0628   18.2532 N   0  0  0  0  0  0  0  0  0  0  0  0
   10.0925   -1.7044   21.5950 H   0  0  0  0  0  0  0  0  0  0  0  0
   11.5764    2.4974   23.3893 H   0  0  0  0  0  0  0  0  0  0  0  0
    9.2383    2.0865   23.0509 H   0  0  0  0  0  0  0  0  0  0  0  0
    7.4931    0.6620   22.4802 H   0  0  0  0  0  0  0  0  0  0  0  0
    7.6594   -1.2690   23.7740 H   0  0  0  0  0  0  0  0  0  0  0  0
    8.1463   -2.1407   22.4818 H   0  0  0  0  0  0  0  0  0  0  0  0
    5.5871   -0.7969   22.5331 H   0  0  0  0  0  0  0  0  0  0  0  0
    5.7461   -2.3610   22.9750 H   0  0  0  0  0  0  0  0  0  0  0  0
    6.5828   -2.9242   20.8610 H   0  0  0  0  0  0  0  0  0  0  0  0
    5.1690   -2.1361   20.6458 H   0  0  0  0  0  0  0  0  0  0  0  0
    5.8526   -1.8187   18.4460 H   0  0  0  0  0  0  0  0  0  0  0  0
    7.3385   -1.2209   18.1277 H   0  0  0  0  0  0  0  0  0  0  0  0
    4.5351    0.6566   19.8344 H   0  0  0  0  0  0  0  0  0  0  0  0
    5.4340    2.7482   16.4092 H   0  0  0  0  0  0  0  0  0  0  0  0
    4.0151    2.7787   18.5141 H   0  0  0  0  0  0  0  0  0  0  0  0
  1  2  1  0  0  0  0
  2  3  2  0  0  0  0
  2  4  1  0  0  0  0
  3  5  1  0  0  0  0
  3  6  1  0  0  0  0
  4  7  2  0  0  0  0
  6  8  2  0  0  0  0
  7  9  1  0  0  0  0
  9 10  1  0  0  0  0
  9 11  1  0  0  0  0
 10 12  2  0  0  0  0
 10 13  1  0  0  0  0
 11 14  1  0  0  0  0
 13 15  1  0  0  0  0
 13 16  1  0  0  0  0
 16 17  1  0  0  0  0
 17 18  1  0  0  0  0
 17 19  2  0  0  0  0
 18 20  2  0  0  0  0
 19 21  1  0  0  0  0
  7  8  1  0  0  0  0
 14 15  1  0  0  0  0
 20 21  1  0  0  0  0
  4 22  1  0  0  0  0
  6 23  1  0  0  0  0
  8 24  1  0  0  0  0
  9 25  1  0  0  0  0
 11 26  1  0  0  0  0
 11 27  1  0  0  0  0
 14 28  1  0  0  0  0
 14 29  1  0  0  0  0
 15 30  1  0  0  0  0
 15 31  1  0  0  0  0
 16 32  1  0  0  0  0
 16 33  1  0  0  0  0
 19 34  1  0  0  0  0
 20 35  1  0  0  0  0
 21 36  1  0  0  0  0
M  END
> <BIOSOLVEIT.HYDE_ESTIMATED_AFFINITY_LOWER_BOUNDARY [nM]>
20095.811449

> <BIOSOLVEIT.HYDE_ESTIMATED_AFFINITY_UPPER_BOUNDARY [nM]>
1996637.683342

> <BIOSOLVEIT.HYDE_LIGAND_EFFICIENCY range: ++, +, 0, -, -->
-

> <BIOSOLVEIT.HYDE_LIGAND_LIPOPHILIC_EFFICIENCY range: ++, +, 0, -, -->
--

> <BIOSOLVEIT.INTER_CLASH range: red, yellow, green>
yellow

> <BIOSOLVEIT.INTRA_CLASH range: red, yellow, green>
green

> <BIOSOLVEIT.LOGP>
3.6227

> <BIOSOLVEIT.MOLECULAR WEIGHT>
324.21

> <BIOSOLVEIT.MOLECULE_CHECKSUM>
LTIxLjEwOTk7MS4wMDUyMw==

> <BIOSOLVEIT.TORSION_QUALITY range: red, yellow, green, not rotatable>
green

> <BIOSOLVEIT.TPSA>
48.99

> <BIOSOLVEIT.SEESAR_FAVORITE>
favorite

> <smc_score>
0.563

> <QED_score>
0.937

> <distance>
0.578

> <SimilarityPheSA_1>
0.695

> <Smiles>
O=C1C(c2ccc(Cl)c(Cl)c2)CCCN1Cc1c[nH]cn1

> <Similarity_SkelSpheres>
0.727

> <Cluster No>
395.0

> <QueryID>
JAN-GHE-5a013bed-2

> <SimilarityPheSA>
0.6945

> <Postera series>
3-aminopyridine-like

> <PDB_code>
Mpro-x10466

> <Approach>
DGM_focussed_RL

> <ID>
20210618_702

> <SimilarityPheSA_2>
0.722

> <OPTIBRIUM.logD>
3.40807

> <OPTIBRIUM.BBB category>
+

> <OPTIBRIUM.logP>
3.40807

> <OPTIBRIUM.P-gp category>
no

> <OPTIBRIUM.logS>
1.73019

> <OPTIBRIUM.HIA category>
+

> <OPTIBRIUM.PPB90 category>
high

> <OPTIBRIUM.2D6 affinity category>
high

> <OPTIBRIUM.hERG pIC50>
4.59893

> <OPTIBRIUM.2C9 pKi>
5.13014

> <OPTIBRIUM.BBB log([brain]:[blood])>
-0.47382

> <OPTIBRIUM.logS @ pH7.4>
1.73019

$$$$
Compound 36_1_06
haSeeSAR  07122111353D 1   1.00000     0.00000     0
SeeSAR 11.0.2 hazemaj
 46 49  0  0  0  0            999 V2000
    7.4629   -4.8559   22.3781 Cl  0  0  0  0  0  0  0  0  0  0  0  0
    7.3544   -4.5992   24.1361 C   0  0  0  0  0  0  0  0  0  0  0  0
    8.4016   -4.0022   24.8311 C   0  0  0  0  0  0  0  0  0  0  0  0
    6.2014   -5.0077   24.7986 C   0  0  0  0  0  0  0  0  0  0  0  0
    8.2868   -3.8147   26.2054 C   0  0  0  0  0  0  0  0  0  0  0  0
    9.6534   -3.5622   24.0890 C   0  0  0  0  0  0  0  0  0  0  0  0
    6.1056   -4.8112   26.1725 C   0  0  0  0  0  0  0  0  0  0  0  0
    9.2884   -3.2436   26.8694 F   0  0  0  0  0  0  0  0  0  0  0  0
    7.1413   -4.2161   26.8850 C   0  0  0  0  0  0  0  0  0  0  0  0
    9.6967   -2.0937   24.0284 N   0  3  2  0  0  0  0  0  0  0  0  0
    4.6414   -5.3245   27.0447 Cl  0  0  0  0  0  0  0  0  0  0  0  0
    8.6508   -1.6051   23.1272 C   0  0  0  0  0  0  0  0  0  0  0  0
   10.9281   -1.6547   23.3521 C   0  0  0  0  0  0  0  0  0  0  0  0
    9.1039   -0.1941   22.8043 C   0  0  1  0  0  0  0  0  0  0  0  0
   10.5854   -0.3970   22.5759 C   0  0  0  0  0  0  0  0  0  0  0  0
    8.4297    0.3145   21.5399 C   0  0  0  0  0  0  0  0  0  0  0  0
    8.9798    1.1751   20.8527 O   0  0  0  0  0  0  0  0  0  0  0  0
    7.2520   -0.1677   21.1784 N   0  0  0  0  0  0  0  0  0  0  0  0
    6.6311    0.3010   20.0138 C   0  0  0  0  0  0  0  0  0  0  0  0
    5.4500    1.0395   20.0368 C   0  0  0  0  0  0  0  0  0  0  0  0
    7.2238    0.0130   18.7886 C   0  0  0  0  0  0  0  0  0  0  0  0
    4.8854    1.4750   18.8437 C   0  0  0  0  0  0  0  0  0  0  0  0
    4.7966    1.3676   21.2212 C   0  0  0  0  0  0  0  0  0  0  0  0
    6.6629    0.4425   17.6482 N   0  0  0  0  0  0  0  0  0  0  0  0
    5.5263    1.1542   17.6513 C   0  0  0  0  0  0  0  0  0  0  0  0
    3.7060    2.2122   18.8779 C   0  0  0  0  0  0  0  0  0  0  0  0
    3.6180    2.1067   21.2165 C   0  0  0  0  0  0  0  0  0  0  0  0
    3.1079    2.5075   20.0419 N   0  0  0  0  0  0  0  0  0  0  0  0
    5.4519   -5.4365   24.2944 H   0  0  0  0  0  0  0  0  0  0  0  0
    9.6385   -3.9338   23.1607 H   0  0  0  0  0  0  0  0  0  0  0  0
   10.4623   -3.9000   24.5703 H   0  0  0  0  0  0  0  0  0  0  0  0
    7.0635   -4.0787   27.8725 H   0  0  0  0  0  0  0  0  0  0  0  0
    7.7596   -1.6006   23.5809 H   0  0  0  0  0  0  0  0  0  0  0  0
    8.6006   -2.1640   22.2995 H   0  0  0  0  0  0  0  0  0  0  0  0
   11.2491   -2.3666   22.7277 H   0  0  0  0  0  0  0  0  0  0  0  0
   11.6390   -1.4581   24.0274 H   0  0  0  0  0  0  0  0  0  0  0  0
    8.9388    0.4225   23.5739 H   0  0  0  0  0  0  0  0  0  0  0  0
   10.7782   -0.5203   21.6025 H   0  0  0  0  0  0  0  0  0  0  0  0
   11.1054    0.3836   22.9225 H   0  0  0  0  0  0  0  0  0  0  0  0
    6.8052   -0.8667   21.7366 H   0  0  0  0  0  0  0  0  0  0  0  0
    8.0716   -0.5163   18.7579 H   0  0  0  0  0  0  0  0  0  0  0  0
    5.1823    1.0661   22.0932 H   0  0  0  0  0  0  0  0  0  0  0  0
    5.1336    1.4589   16.7836 H   0  0  0  0  0  0  0  0  0  0  0  0
    3.2976    2.5272   18.0211 H   0  0  0  0  0  0  0  0  0  0  0  0
    3.1582    2.3355   22.0745 H   0  0  0  0  0  0  0  0  0  0  0  0
    9.6146   -1.6875   24.9385 H   0  0  0  0  0  0  0  0  0  0  0  0
  1  2  1  0  0  0  0
  2  3  2  0  0  0  0
  2  4  1  0  0  0  0
  3  5  1  0  0  0  0
  3  6  1  0  0  0  0
  4  7  2  0  0  0  0
  5  8  1  0  0  0  0
  5  9  2  0  0  0  0
  6 10  1  0  0  0  0
  7 11  1  0  0  0  0
 10 12  1  0  0  0  0
 10 13  1  0  0  0  0
 12 14  1  0  0  0  0
 13 15  1  0  0  0  0
 14 16  1  0  0  0  0
 16 17  2  0  0  0  0
 16 18  1  0  0  0  0
 18 19  1  0  0  0  0
 19 20  1  0  0  0  0
 19 21  2  0  0  0  0
 20 22  1  0  0  0  0
 20 23  2  0  0  0  0
 21 24  1  0  0  0  0
 22 25  1  0  0  0  0
 22 26  2  0  0  0  0
 23 27  1  0  0  0  0
 26 28  1  0  0  0  0
  7  9  1  0  0  0  0
 14 15  1  0  0  0  0
 24 25  2  0  0  0  0
 27 28  2  0  0  0  0
  4 29  1  0  0  0  0
  6 30  1  0  0  0  0
  6 31  1  0  0  0  0
  9 32  1  0  0  0  0
 12 33  1  0  0  0  0
 12 34  1  0  0  0  0
 13 35  1  0  0  0  0
 13 36  1  0  0  0  0
 14 37  1  0  0  0  0
 15 38  1  0  0  0  0
 15 39  1  0  0  0  0
 18 40  1  0  0  0  0
 21 41  1  0  0  0  0
 23 42  1  0  0  0  0
 25 43  1  0  0  0  0
 26 44  1  0  0  0  0
 27 45  1  0  0  0  0
 10 46  1  0  0  0  0
M  CHG  1  10   1
M  END
> <BIOSOLVEIT.HYDE_ESTIMATED_AFFINITY_LOWER_BOUNDARY [nM]>
20347.827140

> <BIOSOLVEIT.HYDE_ESTIMATED_AFFINITY_UPPER_BOUNDARY [nM]>
2021676.932222

> <BIOSOLVEIT.HYDE_LIGAND_EFFICIENCY range: ++, +, 0, -, -->
--

> <BIOSOLVEIT.HYDE_LIGAND_LIPOPHILIC_EFFICIENCY range: ++, +, 0, -, -->
--

> <BIOSOLVEIT.INTER_CLASH range: red, yellow, green>
green

> <BIOSOLVEIT.INTRA_CLASH range: red, yellow, green>
green

> <BIOSOLVEIT.LOGP>
3.1192

> <BIOSOLVEIT.MOLECULAR WEIGHT>
420.293

> <BIOSOLVEIT.MOLECULE_CHECKSUM>
LTIxLjA3OTswLjc1MjgyMg==

> <BIOSOLVEIT.TORSION_QUALITY range: red, yellow, green, not rotatable>
green

> <BIOSOLVEIT.TPSA>
59.32

> <BIOSOLVEIT.SEESAR_FAVORITE>
favorite

> <smc_score>
0.688

> <QED_score>
0.675

> <distance>
0.541

> <SimilarityPheSA_1>
0.638

> <Smiles>
O=C(Nc1cncc2cnccc12)C1CCN(Cc2c(F)cc(Cl)cc2Cl)C1

> <Similarity_SkelSpheres>
0.775

> <Cluster No>
18.0

> <QueryID>
MAT-POS-bb423b95-1

> <SimilarityPheSA>
0.6383

> <Postera series>
3-aminopyridine-like

> <PDB_code>
Mpro-x11542

> <Approach>
DGM_focussed_RL

> <ID>
20210618_35

> <SimilarityPheSA_2>
0.741

> <OPTIBRIUM.logD>
2.60539

> <OPTIBRIUM.BBB category>
-

> <OPTIBRIUM.logP>
2.51247

> <OPTIBRIUM.P-gp category>
yes

> <OPTIBRIUM.logS>
1.20941

> <OPTIBRIUM.HIA category>
+

> <OPTIBRIUM.PPB90 category>
high

> <OPTIBRIUM.2D6 affinity category>
high

> <OPTIBRIUM.hERG pIC50>
5.15418

> <OPTIBRIUM.2C9 pKi>
5.54286

> <OPTIBRIUM.BBB log([brain]:[blood])>
-0.502723

> <OPTIBRIUM.logS @ pH7.4>
1.8643

$$$$
Compound 1562_1_1
haSeeSAR  07122111353D 1   1.00000     0.00000     0
SeeSAR 11.0.2 hazemaj
 27 28  0  0  0  0            999 V2000
   12.6625   -1.9292   21.9951 Cl  0  0  0  0  0  0  0  0  0  0  0  0
   11.4945   -0.6562   22.4246 C   0  0  0  0  0  0  0  0  0  0  0  0
   11.9470    0.5946   22.8310 C   0  0  0  0  0  0  0  0  0  0  0  0
   10.1327   -0.9244   22.3478 C   0  0  0  0  0  0  0  0  0  0  0  0
   13.6960    0.9122   22.9217 Cl  0  0  0  0  0  0  0  0  0  0  0  0
   11.0430    1.5973   23.1673 C   0  0  0  0  0  0  0  0  0  0  0  0
    9.2337    0.0810   22.6856 C   0  0  0  0  0  0  0  0  0  0  0  0
    9.6792    1.3339   23.0934 C   0  0  0  0  0  0  0  0  0  0  0  0
    7.7414   -0.1944   22.6071 C   0  0  0  0  0  0  0  0  0  0  0  0
    7.3946   -0.6312   21.2469 N   0  0  0  0  0  0  0  0  0  0  0  0
    7.6660    0.1477   20.2126 C   0  0  0  0  0  0  0  0  0  0  0  0
    8.2089    1.2383   20.3891 O   0  0  0  0  0  0  0  0  0  0  0  0
    7.3075   -0.3041   18.8063 C   0  0  0  0  0  0  0  0  0  0  0  0
    6.3932    0.6728   18.1957 N   0  0  0  0  0  0  0  0  0  0  0  0
    6.5084    1.1860   16.9906 N   0  0  0  0  0  0  0  0  0  0  0  0
    5.2850    1.2047   18.7766 C   0  0  0  0  0  0  0  0  0  0  0  0
    5.5448    1.9852   16.7964 N   0  0  0  0  0  0  0  0  0  0  0  0
    4.7880    2.0163   17.8732 N   0  0  0  0  0  0  0  0  0  0  0  0
    9.8059   -1.8232   22.0554 H   0  0  0  0  0  0  0  0  0  0  0  0
   11.3696    2.4963   23.4587 H   0  0  0  0  0  0  0  0  0  0  0  0
    9.0189    2.0453   23.3334 H   0  0  0  0  0  0  0  0  0  0  0  0
    7.2363    0.6399   22.8280 H   0  0  0  0  0  0  0  0  0  0  0  0
    7.5002   -0.9127   23.2596 H   0  0  0  0  0  0  0  0  0  0  0  0
    6.9536   -1.5172   21.1036 H   0  0  0  0  0  0  0  0  0  0  0  0
    6.8613   -1.1981   18.8469 H   0  0  0  0  0  0  0  0  0  0  0  0
    8.1395   -0.3715   18.2555 H   0  0  0  0  0  0  0  0  0  0  0  0
    4.9271    1.0183   19.6915 H   0  0  0  0  0  0  0  0  0  0  0  0
  1  2  1  0  0  0  0
  2  3  2  0  0  0  0
  2  4  1  0  0  0  0
  3  5  1  0  0  0  0
  3  6  1  0  0  0  0
  4  7  2  0  0  0  0
  6  8  2  0  0  0  0
  7  9  1  0  0  0  0
  9 10  1  0  0  0  0
 10 11  1  0  0  0  0
 11 12  2  0  0  0  0
 11 13  1  0  0  0  0
 13 14  1  0  0  0  0
 14 15  1  0  0  0  0
 14 16  1  0  0  0  0
 15 17  2  0  0  0  0
 16 18  2  0  0  0  0
  7  8  1  0  0  0  0
 17 18  1  0  0  0  0
  4 19  1  0  0  0  0
  6 20  1  0  0  0  0
  8 21  1  0  0  0  0
  9 22  1  0  0  0  0
  9 23  1  0  0  0  0
 10 24  1  0  0  0  0
 13 25  1  0  0  0  0
 13 26  1  0  0  0  0
 16 27  1  0  0  0  0
M  END
> <BIOSOLVEIT.HYDE_ESTIMATED_AFFINITY_LOWER_BOUNDARY [nM]>
20391.110431

> <BIOSOLVEIT.HYDE_ESTIMATED_AFFINITY_UPPER_BOUNDARY [nM]>
2025977.383094

> <BIOSOLVEIT.HYDE_LIGAND_EFFICIENCY range: ++, +, 0, -, -->
-

> <BIOSOLVEIT.HYDE_LIGAND_LIPOPHILIC_EFFICIENCY range: ++, +, 0, -, -->
-

> <BIOSOLVEIT.INTER_CLASH range: red, yellow, green>
yellow

> <BIOSOLVEIT.INTRA_CLASH range: red, yellow, green>
yellow

> <BIOSOLVEIT.LOGP>
1.2963

> <BIOSOLVEIT.MOLECULAR WEIGHT>
286.121

> <BIOSOLVEIT.MOLECULE_CHECKSUM>
LTIxLjA3Mzg7MS4xNzA3Ng==

> <BIOSOLVEIT.TORSION_QUALITY range: red, yellow, green, not rotatable>
yellow

> <BIOSOLVEIT.TPSA>
72.7

> <BIOSOLVEIT.SEESAR_FAVORITE>
favorite

> <smc_score>
0.625

> <QED_score>
0.919

> <distance>
0.618

> <SimilarityPheSA_1>
0.639

> <Smiles>
O=C(Cn1cnnn1)NCc1ccc(Cl)c(Cl)c1

> <Similarity_SkelSpheres>
0.621

> <Cluster No>
377.0

> <QueryID>
JAN-GHE-5a013bed-2

> <SimilarityPheSA>
0.639

> <Postera series>
3-aminopyridine-like

> <PDB_code>
Mpro-x10466

> <Approach>
DGM_exploratory_RL

> <ID>
20210628_832

> <SimilarityPheSA_2>
0.697

> <OPTIBRIUM.logD>
1.01653

> <OPTIBRIUM.BBB category>
-

> <OPTIBRIUM.logP>
1.01653

> <OPTIBRIUM.P-gp category>
no

> <OPTIBRIUM.logS>
3.63436

> <OPTIBRIUM.HIA category>
+

> <OPTIBRIUM.PPB90 category>
low

> <OPTIBRIUM.2D6 affinity category>
low

> <OPTIBRIUM.hERG pIC50>
4.09351

> <OPTIBRIUM.2C9 pKi>
4.44534

> <OPTIBRIUM.BBB log([brain]:[blood])>
-0.288283

> <OPTIBRIUM.logS @ pH7.4>
3.63436

$$$$
Compound 36_1_10
haSeeSAR  07122111353D 1   1.00000     0.00000     0
SeeSAR 11.0.2 hazemaj
 46 49  0  0  0  0            999 V2000
    7.4916   -4.8092   22.3403 Cl  0  0  0  0  0  0  0  0  0  0  0  0
    7.3752   -4.5853   24.1023 C   0  0  0  0  0  0  0  0  0  0  0  0
    8.4184   -3.9994   24.8128 C   0  0  0  0  0  0  0  0  0  0  0  0
    6.2202   -5.0079   24.7522 C   0  0  0  0  0  0  0  0  0  0  0  0
    8.2974   -3.8375   26.1898 C   0  0  0  0  0  0  0  0  0  0  0  0
    9.6726   -3.5436   24.0842 C   0  0  0  0  0  0  0  0  0  0  0  0
    6.1182   -4.8371   26.1290 C   0  0  0  0  0  0  0  0  0  0  0  0
    9.2952   -3.2771   26.8683 F   0  0  0  0  0  0  0  0  0  0  0  0
    7.1498   -4.2535   26.8569 C   0  0  0  0  0  0  0  0  0  0  0  0
    9.7017   -2.0744   24.0306 N   0  3  2  0  0  0  0  0  0  0  0  0
    4.6513   -5.3691   26.9853 Cl  0  0  0  0  0  0  0  0  0  0  0  0
    8.6560   -1.5920   23.1257 C   0  0  0  0  0  0  0  0  0  0  0  0
   10.9324   -1.6201   23.3632 C   0  0  0  0  0  0  0  0  0  0  0  0
    9.0970   -0.1752   22.8117 C   0  0  1  0  0  0  0  0  0  0  0  0
   10.5816   -0.3624   22.5908 C   0  0  0  0  0  0  0  0  0  0  0  0
    8.4249    0.3326   21.5459 C   0  0  0  0  0  0  0  0  0  0  0  0
    8.9745    1.1952   20.8609 O   0  0  0  0  0  0  0  0  0  0  0  0
    7.2495   -0.1525   21.1808 N   0  0  0  0  0  0  0  0  0  0  0  0
    6.6305    0.3153   20.0148 C   0  0  0  0  0  0  0  0  0  0  0  0
    5.4464    1.0492   20.0351 C   0  0  0  0  0  0  0  0  0  0  0  0
    7.2282    0.0314   18.7911 C   0  0  0  0  0  0  0  0  0  0  0  0
    4.8839    1.4841   18.8407 C   0  0  0  0  0  0  0  0  0  0  0  0
    4.7879    1.3731   21.2178 C   0  0  0  0  0  0  0  0  0  0  0  0
    6.6693    0.4602   17.6496 N   0  0  0  0  0  0  0  0  0  0  0  0
    5.5299    1.1675   17.6500 C   0  0  0  0  0  0  0  0  0  0  0  0
    3.7016    2.2167   18.8722 C   0  0  0  0  0  0  0  0  0  0  0  0
    3.6065    2.1076   21.2103 C   0  0  0  0  0  0  0  0  0  0  0  0
    3.0986    2.5080   20.0346 N   0  0  0  0  0  0  0  0  0  0  0  0
    5.4736   -5.4286   24.2369 H   0  0  0  0  0  0  0  0  0  0  0  0
    9.6700   -3.9110   23.1542 H   0  0  0  0  0  0  0  0  0  0  0  0
   10.4803   -3.8754   24.5715 H   0  0  0  0  0  0  0  0  0  0  0  0
    7.0676   -4.1345   27.8463 H   0  0  0  0  0  0  0  0  0  0  0  0
    7.7623   -1.5984   23.5744 H   0  0  0  0  0  0  0  0  0  0  0  0
    8.6160   -2.1476   22.2952 H   0  0  0  0  0  0  0  0  0  0  0  0
   11.2639   -2.3260   22.7374 H   0  0  0  0  0  0  0  0  0  0  0  0
   11.6376   -1.4197   24.0434 H   0  0  0  0  0  0  0  0  0  0  0  0
    8.9215    0.4363   23.5832 H   0  0  0  0  0  0  0  0  0  0  0  0
   10.7811   -0.4793   21.6180 H   0  0  0  0  0  0  0  0  0  0  0  0
   11.0919    0.4218   22.9439 H   0  0  0  0  0  0  0  0  0  0  0  0
    6.8031   -0.8532   21.7372 H   0  0  0  0  0  0  0  0  0  0  0  0
    8.0781   -0.4946   18.7624 H   0  0  0  0  0  0  0  0  0  0  0  0
    5.1720    1.0719   22.0906 H   0  0  0  0  0  0  0  0  0  0  0  0
    5.1388    1.4719   16.7814 H   0  0  0  0  0  0  0  0  0  0  0  0
    3.2946    2.5313   18.0145 H   0  0  0  0  0  0  0  0  0  0  0  0
    3.1431    2.3334   22.0672 H   0  0  0  0  0  0  0  0  0  0  0  0
    9.6104   -1.6732   24.9420 H   0  0  0  0  0  0  0  0  0  0  0  0
  1  2  1  0  0  0  0
  2  3  2  0  0  0  0
  2  4  1  0  0  0  0
  3  5  1  0  0  0  0
  3  6  1  0  0  0  0
  4  7  2  0  0  0  0
  5  8  1  0  0  0  0
  5  9  2  0  0  0  0
  6 10  1  0  0  0  0
  7 11  1  0  0  0  0
 10 12  1  0  0  0  0
 10 13  1  0  0  0  0
 12 14  1  0  0  0  0
 13 15  1  0  0  0  0
 14 16  1  0  0  0  0
 16 17  2  0  0  0  0
 16 18  1  0  0  0  0
 18 19  1  0  0  0  0
 19 20  1  0  0  0  0
 19 21  2  0  0  0  0
 20 22  1  0  0  0  0
 20 23  2  0  0  0  0
 21 24  1  0  0  0  0
 22 25  1  0  0  0  0
 22 26  2  0  0  0  0
 23 27  1  0  0  0  0
 26 28  1  0  0  0  0
  7  9  1  0  0  0  0
 14 15  1  0  0  0  0
 24 25  2  0  0  0  0
 27 28  2  0  0  0  0
  4 29  1  0  0  0  0
  6 30  1  0  0  0  0
  6 31  1  0  0  0  0
  9 32  1  0  0  0  0
 12 33  1  0  0  0  0
 12 34  1  0  0  0  0
 13 35  1  0  0  0  0
 13 36  1  0  0  0  0
 14 37  1  0  0  0  0
 15 38  1  0  0  0  0
 15 39  1  0  0  0  0
 18 40  1  0  0  0  0
 21 41  1  0  0  0  0
 23 42  1  0  0  0  0
 25 43  1  0  0  0  0
 26 44  1  0  0  0  0
 27 45  1  0  0  0  0
 10 46  1  0  0  0  0
M  CHG  1  10   1
M  END
> <BIOSOLVEIT.HYDE_ESTIMATED_AFFINITY_LOWER_BOUNDARY [nM]>
20703.609890

> <BIOSOLVEIT.HYDE_ESTIMATED_AFFINITY_UPPER_BOUNDARY [nM]>
2057026.051987

> <BIOSOLVEIT.HYDE_LIGAND_EFFICIENCY range: ++, +, 0, -, -->
--

> <BIOSOLVEIT.HYDE_LIGAND_LIPOPHILIC_EFFICIENCY range: ++, +, 0, -, -->
--

> <BIOSOLVEIT.INTER_CLASH range: red, yellow, green>
green

> <BIOSOLVEIT.INTRA_CLASH range: red, yellow, green>
green

> <BIOSOLVEIT.LOGP>
3.1192

> <BIOSOLVEIT.MOLECULAR WEIGHT>
420.293

> <BIOSOLVEIT.MOLECULE_CHECKSUM>
LTIxLjAzNjE7MC43NTEyODg=

> <BIOSOLVEIT.TORSION_QUALITY range: red, yellow, green, not rotatable>
green

> <BIOSOLVEIT.TPSA>
59.32

> <BIOSOLVEIT.SEESAR_FAVORITE>
favorite

> <smc_score>
0.688

> <QED_score>
0.675

> <distance>
0.541

> <SimilarityPheSA_1>
0.638

> <Smiles>
O=C(Nc1cncc2cnccc12)C1CCN(Cc2c(F)cc(Cl)cc2Cl)C1

> <Similarity_SkelSpheres>
0.775

> <Cluster No>
18.0

> <QueryID>
MAT-POS-bb423b95-1

> <SimilarityPheSA>
0.6383

> <Postera series>
3-aminopyridine-like

> <PDB_code>
Mpro-x11542

> <Approach>
DGM_focussed_RL

> <ID>
20210618_35

> <SimilarityPheSA_2>
0.741

> <OPTIBRIUM.logD>
2.60539

> <OPTIBRIUM.BBB category>
-

> <OPTIBRIUM.logP>
2.51247

> <OPTIBRIUM.P-gp category>
yes

> <OPTIBRIUM.logS>
1.20941

> <OPTIBRIUM.HIA category>
+

> <OPTIBRIUM.PPB90 category>
high

> <OPTIBRIUM.2D6 affinity category>
high

> <OPTIBRIUM.hERG pIC50>
5.15418

> <OPTIBRIUM.2C9 pKi>
5.54286

> <OPTIBRIUM.BBB log([brain]:[blood])>
-0.502723

> <OPTIBRIUM.logS @ pH7.4>
1.8643

$$$$
Compound 401_1_3
haSeeSAR  07122111353D 1   1.00000     0.00000     0
SeeSAR 11.0.2 hazemaj
 47 49  0  0  0  0            999 V2000
   12.8696    2.1480   23.8496 Cl  0  0  0  0  0  0  0  0  0  0  0  0
   12.3683    0.6870   22.9645 C   0  0  0  0  0  0  0  0  0  0  0  0
   11.0499    0.2519   23.0507 C   0  0  0  0  0  0  0  0  0  0  0  0
   13.3005   -0.0038   22.1972 C   0  0  0  0  0  0  0  0  0  0  0  0
   10.1604    0.9371   23.8011 O   0  0  0  0  0  0  0  0  0  0  0  0
   10.6650   -0.8900   22.3563 C   0  0  0  0  0  0  0  0  0  0  0  0
   12.8939   -1.1438   21.5116 C   0  0  0  0  0  0  0  0  0  0  0  0
    9.8627    2.2904   23.4904 C   0  0  0  0  0  0  0  0  0  0  0  0
   11.5803   -1.5963   21.5830 C   0  0  0  0  0  0  0  0  0  0  0  0
    9.2281   -1.3803   22.4368 C   0  0  0  0  0  0  0  0  0  0  0  0
   14.0788   -2.0349   20.5267 Cl  0  0  0  0  0  0  0  0  0  0  0  0
    8.3233   -0.2290   22.5422 N   0  0  0  0  0  0  0  0  0  0  0  0
    8.3103    0.7906   21.5792 C   0  0  0  0  0  0  0  0  0  0  0  0
    7.3961   -0.1257   23.6783 C   0  0  0  0  0  0  0  0  0  0  0  0
    9.0558    0.7261   20.6110 O   0  0  0  0  0  0  0  0  0  0  0  0
    7.3436    1.9563   21.7717 C   0  0  0  0  0  0  0  0  0  0  0  0
    6.0331    0.3601   23.1968 C   0  0  0  0  0  0  0  0  0  0  0  0
    6.0410    1.5759   22.3559 N   0  3  2  0  0  0  0  0  0  0  0  0
    5.1092    1.3311   21.2452 C   0  0  0  0  0  0  0  0  0  0  0  0
    5.5225    2.1662   20.0431 C   0  0  1  0  0  0  0  0  0  0  0  0
    6.3447    1.4068   19.1008 N   0  0  0  0  0  0  0  0  0  0  0  0
    4.3409    2.6081   19.2001 C   0  0  0  0  0  0  0  0  0  0  0  0
    5.5272    0.9221   18.0818 C   0  0  0  0  0  0  0  0  0  0  0  0
    4.1111    1.3701   18.3621 C   0  0  0  0  0  0  0  0  0  0  0  0
    5.8917    0.2571   17.1270 O   0  0  0  0  0  0  0  0  0  0  0  0
   14.2470    0.3136   22.1394 H   0  0  0  0  0  0  0  0  0  0  0  0
    9.1899    2.6417   24.1416 H   0  0  0  0  0  0  0  0  0  0  0  0
   10.6982    2.8370   23.5469 H   0  0  0  0  0  0  0  0  0  0  0  0
    9.4903    2.3455   22.5640 H   0  0  0  0  0  0  0  0  0  0  0  0
   11.2983   -2.4169   21.0859 H   0  0  0  0  0  0  0  0  0  0  0  0
    9.1196   -1.9642   23.2413 H   0  0  0  0  0  0  0  0  0  0  0  0
    9.0077   -1.9031   21.6133 H   0  0  0  0  0  0  0  0  0  0  0  0
    7.7617    0.5226   24.3462 H   0  0  0  0  0  0  0  0  0  0  0  0
    7.2955   -1.0239   24.1063 H   0  0  0  0  0  0  0  0  0  0  0  0
    7.1762    2.3750   20.8790 H   0  0  0  0  0  0  0  0  0  0  0  0
    7.7754    2.6245   22.3775 H   0  0  0  0  0  0  0  0  0  0  0  0
    5.4727    0.5489   24.0031 H   0  0  0  0  0  0  0  0  0  0  0  0
    5.6153   -0.3771   22.6656 H   0  0  0  0  0  0  0  0  0  0  0  0
    4.1832    1.5848   21.5248 H   0  0  0  0  0  0  0  0  0  0  0  0
    5.1296    0.3617   21.0004 H   0  0  0  0  0  0  0  0  0  0  0  0
    6.0291    2.9703   20.3544 H   0  0  0  0  0  0  0  0  0  0  0  0
    7.3309    1.2597   19.1758 H   0  0  0  0  0  0  0  0  0  0  0  0
    4.5691    3.3994   18.6328 H   0  0  0  0  0  0  0  0  0  0  0  0
    3.5448    2.8223   19.7662 H   0  0  0  0  0  0  0  0  0  0  0  0
    3.6235    1.5877   17.5165 H   0  0  0  0  0  0  0  0  0  0  0  0
    3.6028    0.6750   18.8705 H   0  0  0  0  0  0  0  0  0  0  0  0
    5.6977    2.3424   22.8986 H   0  0  0  0  0  0  0  0  0  0  0  0
  1  2  1  0  0  0  0
  2  3  2  0  0  0  0
  2  4  1  0  0  0  0
  3  5  1  0  0  0  0
  3  6  1  0  0  0  0
  4  7  2  0  0  0  0
  5  8  1  0  0  0  0
  6  9  2  0  0  0  0
  6 10  1  0  0  0  0
  7 11  1  0  0  0  0
 10 12  1  0  0  0  0
 12 13  1  0  0  0  0
 12 14  1  0  0  0  0
 13 15  2  0  0  0  0
 13 16  1  0  0  0  0
 14 17  1  0  0  0  0
 16 18  1  0  0  0  0
 18 19  1  0  0  0  0
 19 20  1  0  0  0  0
 20 21  1  0  0  0  0
 20 22  1  0  0  0  0
 21 23  1  0  0  0  0
 22 24  1  0  0  0  0
 23 25  2  0  0  0  0
  7  9  1  0  0  0  0
 17 18  1  0  0  0  0
 23 24  1  0  0  0  0
  4 26  1  0  0  0  0
  8 27  1  0  0  0  0
  8 28  1  0  0  0  0
  8 29  1  0  0  0  0
  9 30  1  0  0  0  0
 10 31  1  0  0  0  0
 10 32  1  0  0  0  0
 14 33  1  0  0  0  0
 14 34  1  0  0  0  0
 16 35  1  0  0  0  0
 16 36  1  0  0  0  0
 17 37  1  0  0  0  0
 17 38  1  0  0  0  0
 19 39  1  0  0  0  0
 19 40  1  0  0  0  0
 20 41  1  0  0  0  0
 21 42  1  0  0  0  0
 22 43  1  0  0  0  0
 22 44  1  0  0  0  0
 24 45  1  0  0  0  0
 24 46  1  0  0  0  0
 18 47  1  0  0  0  0
M  CHG  1  18   1
M  END
> <BIOSOLVEIT.HYDE_ESTIMATED_AFFINITY_LOWER_BOUNDARY [nM]>
21282.476715

> <BIOSOLVEIT.HYDE_ESTIMATED_AFFINITY_UPPER_BOUNDARY [nM]>
2114539.893640

> <BIOSOLVEIT.HYDE_LIGAND_EFFICIENCY range: ++, +, 0, -, -->
-

> <BIOSOLVEIT.HYDE_LIGAND_LIPOPHILIC_EFFICIENCY range: ++, +, 0, -, -->
-

> <BIOSOLVEIT.INTER_CLASH range: red, yellow, green>
yellow

> <BIOSOLVEIT.INTRA_CLASH range: red, yellow, green>
red

> <BIOSOLVEIT.LOGP>
0.5077

> <BIOSOLVEIT.MOLECULAR WEIGHT>
387.285

> <BIOSOLVEIT.MOLECULE_CHECKSUM>
LTIwLjk2Nzc7MC44Mzg3MDg=

> <BIOSOLVEIT.TORSION_QUALITY range: red, yellow, green, not rotatable>
yellow

> <BIOSOLVEIT.TPSA>
63.08

> <BIOSOLVEIT.SEESAR_FAVORITE>
favorite

> <smc_score>
0.688

> <QED_score>
0.84

> <distance>
0.765

> <SimilarityPheSA_1>
0.631

> <Smiles>
COc1c(Cl)cc(Cl)cc1CN1CCN(CC2CCC(=O)N2)CC1=O

> <Similarity_SkelSpheres>
0.604

> <Cluster No>
203.0

> <QueryID>
JAN-GHE-5a013bed-2

> <SimilarityPheSA>
0.631

> <Postera series>
3-aminopyridine-like

> <PDB_code>
Mpro-x10466

> <Approach>
DGM_focussed_RL

> <ID>
20210618_400

> <SimilarityPheSA_2>
0.644

> <OPTIBRIUM.logD>
0.788254

> <OPTIBRIUM.BBB category>
-

> <OPTIBRIUM.logP>
1.50039

> <OPTIBRIUM.P-gp category>
yes

> <OPTIBRIUM.logS>
3.38587

> <OPTIBRIUM.HIA category>
+

> <OPTIBRIUM.PPB90 category>
low

> <OPTIBRIUM.2D6 affinity category>
medium

> <OPTIBRIUM.hERG pIC50>
4.50247

> <OPTIBRIUM.2C9 pKi>
4.80368

> <OPTIBRIUM.BBB log([brain]:[blood])>
-0.289365

> <OPTIBRIUM.logS @ pH7.4>
2.88055

$$$$
Compound 428_1_8
haSeeSAR  07122111353D 1   1.00000     0.00000     0
SeeSAR 11.0.2 hazemaj
 48 52  0  0  0  0            999 V2000
    9.2458   -3.5324   26.5257 Cl  0  0  0  0  0  0  0  0  0  0  0  0
    8.4296   -2.1837   25.6988 C   0  0  0  0  0  0  0  0  0  0  0  0
    7.4111   -1.4972   26.3494 C   0  0  0  0  0  0  0  0  0  0  0  0
    8.7776   -1.8112   24.4094 C   0  0  0  0  0  0  0  0  0  0  0  0
    6.9089   -1.9467   27.9965 Cl  0  0  0  0  0  0  0  0  0  0  0  0
    6.7763   -0.4416   25.7012 C   0  0  0  0  0  0  0  0  0  0  0  0
    8.1816   -0.7756   23.7397 C   0  0  0  0  0  0  0  0  0  0  0  0
    9.8101   -2.4235   23.4781 C   0  0  0  0  0  0  0  0  0  0  0  0
    7.1656   -0.0919   24.4128 C   0  0  0  0  0  0  0  0  0  0  0  0
    8.7481   -0.6317   22.4792 N   0  0  0  0  0  0  0  0  0  0  0  0
   10.0442   -1.3005   22.4911 C   0  0  0  0  0  0  0  0  0  0  0  0
    6.5140    0.9442   23.8410 O   0  0  0  0  0  0  0  0  0  0  0  0
    8.1839    0.0139   21.3685 C   0  0  0  0  0  0  0  0  0  0  0  0
    5.5776    1.6981   24.5967 C   0  0  0  0  0  0  0  0  0  0  0  0
    8.7616    0.9281   20.8484 O   0  0  0  0  0  0  0  0  0  0  0  0
    6.9733   -0.3995   20.8779 N   0  0  0  0  0  0  0  0  0  0  0  0
    6.4099    0.2452   19.7687 C   0  0  0  0  0  0  0  0  0  0  0  0
    5.2871    1.0649   19.8647 C   0  0  0  0  0  0  0  0  0  0  0  0
    7.0007    0.0554   18.5239 C   0  0  0  0  0  0  0  0  0  0  0  0
    4.7808    1.6734   18.7206 C   0  0  0  0  0  0  0  0  0  0  0  0
    4.6432    1.3032   21.0751 C   0  0  0  0  0  0  0  0  0  0  0  0
    6.4971    0.6509   17.4327 N   0  0  0  0  0  0  0  0  0  0  0  0
    5.4172    1.4427   17.5054 C   0  0  0  0  0  0  0  0  0  0  0  0
    3.6618    2.4967   18.7927 C   0  0  0  0  0  0  0  0  0  0  0  0
    3.5243    2.1234   21.1542 C   0  0  0  0  0  0  0  0  0  0  0  0
    3.0246    2.7284   20.0071 C   0  0  0  0  0  0  0  0  0  0  0  0
    2.8672    2.3431   22.5068 C   0  0  0  0  0  0  0  0  0  0  0  0
    1.3853    2.1193   22.4271 C   0  0  0  0  0  0  0  0  0  0  0  0
    1.9302    3.5165   22.5054 C   0  0  0  0  0  0  0  0  0  0  0  0
    6.0443    0.0625   26.1594 H   0  0  0  0  0  0  0  0  0  0  0  0
    9.4517   -3.2387   23.0233 H   0  0  0  0  0  0  0  0  0  0  0  0
   10.6494   -2.6573   23.9690 H   0  0  0  0  0  0  0  0  0  0  0  0
   10.2783   -1.6553   21.5859 H   0  0  0  0  0  0  0  0  0  0  0  0
   10.7675   -0.6855   22.8053 H   0  0  0  0  0  0  0  0  0  0  0  0
    5.1918    2.4211   24.0235 H   0  0  0  0  0  0  0  0  0  0  0  0
    4.8441    1.0970   24.9139 H   0  0  0  0  0  0  0  0  0  0  0  0
    6.0376    2.1072   25.3848 H   0  0  0  0  0  0  0  0  0  0  0  0
    6.4919   -1.1613   21.3112 H   0  0  0  0  0  0  0  0  0  0  0  0
    7.8074   -0.5297   18.4417 H   0  0  0  0  0  0  0  0  0  0  0  0
    4.9940    0.8742   21.9076 H   0  0  0  0  0  0  0  0  0  0  0  0
    5.0648    1.8734   16.6745 H   0  0  0  0  0  0  0  0  0  0  0  0
    3.3112    2.9271   17.9610 H   0  0  0  0  0  0  0  0  0  0  0  0
    2.2201    3.3206   20.0542 H   0  0  0  0  0  0  0  0  0  0  0  0
    3.3608    2.1035   23.3428 H   0  0  0  0  0  0  0  0  0  0  0  0
    0.8959    1.7291   23.2070 H   0  0  0  0  0  0  0  0  0  0  0  0
    0.9745    1.7898   21.5771 H   0  0  0  0  0  0  0  0  0  0  0  0
    1.8824    4.1174   21.7074 H   0  0  0  0  0  0  0  0  0  0  0  0
    1.8039    4.0567   23.3374 H   0  0  0  0  0  0  0  0  0  0  0  0
  1  2  1  0  0  0  0
  2  3  2  0  0  0  0
  2  4  1  0  0  0  0
  3  5  1  0  0  0  0
  3  6  1  0  0  0  0
  4  7  2  0  0  0  0
  4  8  1  0  0  0  0
  6  9  2  0  0  0  0
  7 10  1  0  0  0  0
  8 11  1  0  0  0  0
  9 12  1  0  0  0  0
 10 13  1  0  0  0  0
 12 14  1  0  0  0  0
 13 15  2  0  0  0  0
 13 16  1  0  0  0  0
 16 17  1  0  0  0  0
 17 18  1  0  0  0  0
 17 19  2  0  0  0  0
 18 20  1  0  0  0  0
 18 21  2  0  0  0  0
 19 22  1  0  0  0  0
 20 23  1  0  0  0  0
 20 24  2  0  0  0  0
 21 25  1  0  0  0  0
 24 26  1  0  0  0  0
 25 27  1  0  0  0  0
 27 28  1  0  0  0  0
 27 29  1  0  0  0  0
  7  9  1  0  0  0  0
 10 11  1  0  0  0  0
 22 23  2  0  0  0  0
 25 26  2  0  0  0  0
 28 29  1  0  0  0  0
  6 30  1  0  0  0  0
  8 31  1  0  0  0  0
  8 32  1  0  0  0  0
 11 33  1  0  0  0  0
 11 34  1  0  0  0  0
 14 35  1  0  0  0  0
 14 36  1  0  0  0  0
 14 37  1  0  0  0  0
 16 38  1  0  0  0  0
 19 39  1  0  0  0  0
 21 40  1  0  0  0  0
 23 41  1  0  0  0  0
 24 42  1  0  0  0  0
 26 43  1  0  0  0  0
 27 44  1  0  0  0  0
 28 45  1  0  0  0  0
 28 46  1  0  0  0  0
 29 47  1  0  0  0  0
 29 48  1  0  0  0  0
M  END
> <BIOSOLVEIT.HYDE_ESTIMATED_AFFINITY_LOWER_BOUNDARY [nM]>
21390.319386

> <BIOSOLVEIT.HYDE_ESTIMATED_AFFINITY_UPPER_BOUNDARY [nM]>
2125254.700591

> <BIOSOLVEIT.HYDE_LIGAND_EFFICIENCY range: ++, +, 0, -, -->
--

> <BIOSOLVEIT.HYDE_LIGAND_LIPOPHILIC_EFFICIENCY range: ++, +, 0, -, -->
--

> <BIOSOLVEIT.INTER_CLASH range: red, yellow, green>
green

> <BIOSOLVEIT.INTRA_CLASH range: red, yellow, green>
green

> <BIOSOLVEIT.LOGP>
6.0222

> <BIOSOLVEIT.MOLECULAR WEIGHT>
428.317

> <BIOSOLVEIT.MOLECULE_CHECKSUM>
LTIwLjk1NTI7MC43MjI1OTI=

> <BIOSOLVEIT.TORSION_QUALITY range: red, yellow, green, not rotatable>
yellow

> <BIOSOLVEIT.TPSA>
54.46

> <BIOSOLVEIT.SEESAR_FAVORITE>
favorite

> <smc_score>
0.875

> <QED_score>
0.555

> <distance>
0.614

> <SimilarityPheSA_1>
0.637

> <Smiles>
COc1cc(Cl)c(Cl)c2c1N(C(=O)Nc1cncc3ccc(C4CC4)cc13)CC2

> <Similarity_SkelSpheres>
0.682

> <Cluster No>
219.0

> <QueryID>
ALP-POS-ce760d3f-2

> <SimilarityPheSA>
0.6366

> <Postera series>
3-aminopyridine-like

> <PDB_code>
Mpro-x12659

> <Approach>
DGM_focussed_RL

> <ID>
20210618_427

> <SimilarityPheSA_2>
0.872

> <OPTIBRIUM.logD>
5.45431

> <OPTIBRIUM.BBB category>
-

> <OPTIBRIUM.logP>
5.45431

> <OPTIBRIUM.P-gp category>
yes

> <OPTIBRIUM.logS>
-0.802743

> <OPTIBRIUM.HIA category>
+

> <OPTIBRIUM.PPB90 category>
high

> <OPTIBRIUM.2D6 affinity category>
high

> <OPTIBRIUM.hERG pIC50>
6.00604

> <OPTIBRIUM.2C9 pKi>
6.15407

> <OPTIBRIUM.BBB log([brain]:[blood])>
0.075279

> <OPTIBRIUM.logS @ pH7.4>
-0.802743

$$$$
Compound 428_1_9
haSeeSAR  07122111353D 1   1.00000     0.00000     0
SeeSAR 11.0.2 hazemaj
 48 52  0  0  0  0            999 V2000
    9.2458   -3.5323   26.5258 Cl  0  0  0  0  0  0  0  0  0  0  0  0
    8.4296   -2.1837   25.6989 C   0  0  0  0  0  0  0  0  0  0  0  0
    7.4110   -1.4971   26.3494 C   0  0  0  0  0  0  0  0  0  0  0  0
    8.7776   -1.8111   24.4094 C   0  0  0  0  0  0  0  0  0  0  0  0
    6.9088   -1.9466   27.9965 Cl  0  0  0  0  0  0  0  0  0  0  0  0
    6.7762   -0.4416   25.7012 C   0  0  0  0  0  0  0  0  0  0  0  0
    8.1816   -0.7756   23.7397 C   0  0  0  0  0  0  0  0  0  0  0  0
    9.8101   -2.4234   23.4781 C   0  0  0  0  0  0  0  0  0  0  0  0
    7.1656   -0.0919   24.4129 C   0  0  0  0  0  0  0  0  0  0  0  0
    8.7481   -0.6317   22.4792 N   0  0  0  0  0  0  0  0  0  0  0  0
   10.0442   -1.3005   22.4911 C   0  0  0  0  0  0  0  0  0  0  0  0
    6.5140    0.9442   23.8410 O   0  0  0  0  0  0  0  0  0  0  0  0
    8.1839    0.0139   21.3685 C   0  0  0  0  0  0  0  0  0  0  0  0
    5.5777    1.6982   24.5967 C   0  0  0  0  0  0  0  0  0  0  0  0
    8.7616    0.9280   20.8484 O   0  0  0  0  0  0  0  0  0  0  0  0
    6.9733   -0.3994   20.8779 N   0  0  0  0  0  0  0  0  0  0  0  0
    6.4099    0.2453   19.7688 C   0  0  0  0  0  0  0  0  0  0  0  0
    5.2871    1.0649   19.8648 C   0  0  0  0  0  0  0  0  0  0  0  0
    7.0006    0.0554   18.5239 C   0  0  0  0  0  0  0  0  0  0  0  0
    4.7808    1.6735   18.7206 C   0  0  0  0  0  0  0  0  0  0  0  0
    4.6432    1.3033   21.0752 C   0  0  0  0  0  0  0  0  0  0  0  0
    6.4971    0.6509   17.4328 N   0  0  0  0  0  0  0  0  0  0  0  0
    5.4172    1.4427   17.5055 C   0  0  0  0  0  0  0  0  0  0  0  0
    3.6617    2.4967   18.7927 C   0  0  0  0  0  0  0  0  0  0  0  0
    3.5243    2.1234   21.1542 C   0  0  0  0  0  0  0  0  0  0  0  0
    3.0246    2.7284   20.0071 C   0  0  0  0  0  0  0  0  0  0  0  0
    2.8671    2.3432   22.5068 C   0  0  0  0  0  0  0  0  0  0  0  0
    1.3852    2.1189   22.4271 C   0  0  0  0  0  0  0  0  0  0  0  0
    1.9298    3.5164   22.5053 C   0  0  0  0  0  0  0  0  0  0  0  0
    6.0443    0.0626   26.1594 H   0  0  0  0  0  0  0  0  0  0  0  0
    9.4518   -3.2387   23.0234 H   0  0  0  0  0  0  0  0  0  0  0  0
   10.6494   -2.6572   23.9691 H   0  0  0  0  0  0  0  0  0  0  0  0
   10.2783   -1.6553   21.5860 H   0  0  0  0  0  0  0  0  0  0  0  0
   10.7675   -0.6855   22.8054 H   0  0  0  0  0  0  0  0  0  0  0  0
    5.1919    2.4212   24.0235 H   0  0  0  0  0  0  0  0  0  0  0  0
    4.8442    1.0972   24.9140 H   0  0  0  0  0  0  0  0  0  0  0  0
    6.0378    2.1074   25.3847 H   0  0  0  0  0  0  0  0  0  0  0  0
    6.4919   -1.1611   21.3114 H   0  0  0  0  0  0  0  0  0  0  0  0
    7.8074   -0.5296   18.4418 H   0  0  0  0  0  0  0  0  0  0  0  0
    4.9940    0.8743   21.9076 H   0  0  0  0  0  0  0  0  0  0  0  0
    5.0648    1.8734   16.6745 H   0  0  0  0  0  0  0  0  0  0  0  0
    3.3112    2.9271   17.9610 H   0  0  0  0  0  0  0  0  0  0  0  0
    2.2201    3.3207   20.0542 H   0  0  0  0  0  0  0  0  0  0  0  0
    3.3608    2.1038   23.3429 H   0  0  0  0  0  0  0  0  0  0  0  0
    0.8960    1.7286   23.2071 H   0  0  0  0  0  0  0  0  0  0  0  0
    0.9745    1.7893   21.5771 H   0  0  0  0  0  0  0  0  0  0  0  0
    1.8819    4.1171   21.7073 H   0  0  0  0  0  0  0  0  0  0  0  0
    1.8034    4.0565   23.3373 H   0  0  0  0  0  0  0  0  0  0  0  0
  1  2  1  0  0  0  0
  2  3  2  0  0  0  0
  2  4  1  0  0  0  0
  3  5  1  0  0  0  0
  3  6  1  0  0  0  0
  4  7  2  0  0  0  0
  4  8  1  0  0  0  0
  6  9  2  0  0  0  0
  7 10  1  0  0  0  0
  8 11  1  0  0  0  0
  9 12  1  0  0  0  0
 10 13  1  0  0  0  0
 12 14  1  0  0  0  0
 13 15  2  0  0  0  0
 13 16  1  0  0  0  0
 16 17  1  0  0  0  0
 17 18  1  0  0  0  0
 17 19  2  0  0  0  0
 18 20  1  0  0  0  0
 18 21  2  0  0  0  0
 19 22  1  0  0  0  0
 20 23  1  0  0  0  0
 20 24  2  0  0  0  0
 21 25  1  0  0  0  0
 24 26  1  0  0  0  0
 25 27  1  0  0  0  0
 27 28  1  0  0  0  0
 27 29  1  0  0  0  0
  7  9  1  0  0  0  0
 10 11  1  0  0  0  0
 22 23  2  0  0  0  0
 25 26  2  0  0  0  0
 28 29  1  0  0  0  0
  6 30  1  0  0  0  0
  8 31  1  0  0  0  0
  8 32  1  0  0  0  0
 11 33  1  0  0  0  0
 11 34  1  0  0  0  0
 14 35  1  0  0  0  0
 14 36  1  0  0  0  0
 14 37  1  0  0  0  0
 16 38  1  0  0  0  0
 19 39  1  0  0  0  0
 21 40  1  0  0  0  0
 23 41  1  0  0  0  0
 24 42  1  0  0  0  0
 26 43  1  0  0  0  0
 27 44  1  0  0  0  0
 28 45  1  0  0  0  0
 28 46  1  0  0  0  0
 29 47  1  0  0  0  0
 29 48  1  0  0  0  0
M  END
> <BIOSOLVEIT.HYDE_ESTIMATED_AFFINITY_LOWER_BOUNDARY [nM]>
21423.010016

> <BIOSOLVEIT.HYDE_ESTIMATED_AFFINITY_UPPER_BOUNDARY [nM]>
2128502.707937

> <BIOSOLVEIT.HYDE_LIGAND_EFFICIENCY range: ++, +, 0, -, -->
--

> <BIOSOLVEIT.HYDE_LIGAND_LIPOPHILIC_EFFICIENCY range: ++, +, 0, -, -->
--

> <BIOSOLVEIT.INTER_CLASH range: red, yellow, green>
green

> <BIOSOLVEIT.INTRA_CLASH range: red, yellow, green>
green

> <BIOSOLVEIT.LOGP>
6.0222

> <BIOSOLVEIT.MOLECULAR WEIGHT>
428.317

> <BIOSOLVEIT.MOLECULE_CHECKSUM>
LTIwLjk1MTQ7MC43MjI0NjE=

> <BIOSOLVEIT.TORSION_QUALITY range: red, yellow, green, not rotatable>
yellow

> <BIOSOLVEIT.TPSA>
54.46

> <BIOSOLVEIT.SEESAR_FAVORITE>
favorite

> <smc_score>
0.875

> <QED_score>
0.555

> <distance>
0.614

> <SimilarityPheSA_1>
0.637

> <Smiles>
COc1cc(Cl)c(Cl)c2c1N(C(=O)Nc1cncc3ccc(C4CC4)cc13)CC2

> <Similarity_SkelSpheres>
0.682

> <Cluster No>
219.0

> <QueryID>
ALP-POS-ce760d3f-2

> <SimilarityPheSA>
0.6366

> <Postera series>
3-aminopyridine-like

> <PDB_code>
Mpro-x12659

> <Approach>
DGM_focussed_RL

> <ID>
20210618_427

> <SimilarityPheSA_2>
0.872

> <OPTIBRIUM.logD>
5.45431

> <OPTIBRIUM.BBB category>
-

> <OPTIBRIUM.logP>
5.45431

> <OPTIBRIUM.P-gp category>
yes

> <OPTIBRIUM.logS>
-0.802743

> <OPTIBRIUM.HIA category>
+

> <OPTIBRIUM.PPB90 category>
high

> <OPTIBRIUM.2D6 affinity category>
high

> <OPTIBRIUM.hERG pIC50>
6.00604

> <OPTIBRIUM.2C9 pKi>
6.15407

> <OPTIBRIUM.BBB log([brain]:[blood])>
0.075279

> <OPTIBRIUM.logS @ pH7.4>
-0.802743

$$$$
Compound 35_1_08
haSeeSAR  07122111353D 1   1.00000     0.00000     0
SeeSAR 11.0.2 hazemaj
 48 51  0  0  0  0            999 V2000
    7.0673    0.4138   28.1120 Cl  0  0  0  0  0  0  0  0  0  0  0  0
    7.7189    0.2314   26.4648 C   0  0  0  0  0  0  0  0  0  0  0  0
    7.7088    1.3185   25.5985 C   0  0  0  0  0  0  0  0  0  0  0  0
    8.2433   -0.9748   26.0114 C   0  0  0  0  0  0  0  0  0  0  0  0
    7.0526    2.8832   26.1335 Cl  0  0  0  0  0  0  0  0  0  0  0  0
    8.2064    1.2101   24.3052 C   0  0  0  0  0  0  0  0  0  0  0  0
    8.7495   -1.1058   24.7209 C   0  0  0  0  0  0  0  0  0  0  0  0
    8.7211   -0.0133   23.8888 C   0  0  0  0  0  0  0  0  0  0  0  0
    9.3315   -2.1672   24.0340 N   0  0  0  0  0  0  0  0  0  0  0  0
    9.3075   -0.4206   22.5544 C   0  0  1  0  0  0  0  0  0  0  0  0
    9.1664   -1.9233   22.6032 C   0  0  0  0  0  0  0  0  0  0  0  0
   10.0114   -3.3187   24.6382 C   0  0  0  0  0  0  0  0  0  0  0  0
    8.5583    0.1896   21.3811 C   0  0  0  0  0  0  0  0  0  0  0  0
    8.9770   -4.2800   25.2006 C   0  0  0  0  0  0  0  0  0  0  0  0
    9.0172    1.1746   20.8028 O   0  0  0  0  0  0  0  0  0  0  0  0
    7.4128   -0.3381   20.9812 N   0  0  0  0  0  0  0  0  0  0  0  0
    8.0992   -4.7967   24.0722 C   0  0  0  0  0  0  0  0  0  0  0  0
    9.6821   -5.4485   25.8697 C   0  0  0  0  0  0  0  0  0  0  0  0
    6.7222    0.2243   19.8998 C   0  0  0  0  0  0  0  0  0  0  0  0
    5.5289    0.9266   20.0535 C   0  0  0  0  0  0  0  0  0  0  0  0
    7.2561    0.0706   18.6244 C   0  0  0  0  0  0  0  0  0  0  0  0
    4.8939    1.4600   18.9379 C   0  0  0  0  0  0  0  0  0  0  0  0
    4.9316    1.1226   21.2952 C   0  0  0  0  0  0  0  0  0  0  0  0
    6.6279    0.5930   17.5606 N   0  0  0  0  0  0  0  0  0  0  0  0
    5.4784    1.2718   17.6896 C   0  0  0  0  0  0  0  0  0  0  0  0
    3.7030    2.1601   19.1024 C   0  0  0  0  0  0  0  0  0  0  0  0
    3.7391    1.8282   21.4210 C   0  0  0  0  0  0  0  0  0  0  0  0
    3.1604    2.3267   20.3179 N   0  0  0  0  0  0  0  0  0  0  0  0
    8.2570   -1.7642   26.6251 H   0  0  0  0  0  0  0  0  0  0  0  0
    8.1948    1.9957   23.6866 H   0  0  0  0  0  0  0  0  0  0  0  0
   10.2742   -0.1679   22.5131 H   0  0  0  0  0  0  0  0  0  0  0  0
    8.2672   -2.2192   22.2808 H   0  0  0  0  0  0  0  0  0  0  0  0
    9.8784   -2.3776   22.0679 H   0  0  0  0  0  0  0  0  0  0  0  0
   10.6092   -3.0037   25.3753 H   0  0  0  0  0  0  0  0  0  0  0  0
   10.5573   -3.7860   23.9428 H   0  0  0  0  0  0  0  0  0  0  0  0
    8.4099   -3.8038   25.8726 H   0  0  0  0  0  0  0  0  0  0  0  0
    7.0399   -1.1382   21.4510 H   0  0  0  0  0  0  0  0  0  0  0  0
    7.4187   -5.4291   24.4423 H   0  0  0  0  0  0  0  0  0  0  0  0
    7.6353   -4.0280   23.6321 H   0  0  0  0  0  0  0  0  0  0  0  0
    8.6663   -5.2730   23.4002 H   0  0  0  0  0  0  0  0  0  0  0  0
    9.0016   -6.0809   26.2397 H   0  0  0  0  0  0  0  0  0  0  0  0
   10.2491   -5.9248   25.1977 H   0  0  0  0  0  0  0  0  0  0  0  0
   10.2595   -5.1085   26.6120 H   0  0  0  0  0  0  0  0  0  0  0  0
    8.1120   -0.4315   18.5002 H   0  0  0  0  0  0  0  0  0  0  0  0
    5.3682    0.7488   22.1135 H   0  0  0  0  0  0  0  0  0  0  0  0
    5.0348    1.6482   16.8762 H   0  0  0  0  0  0  0  0  0  0  0  0
    3.2440    2.5451   18.3018 H   0  0  0  0  0  0  0  0  0  0  0  0
    3.3201    1.9616   22.3192 H   0  0  0  0  0  0  0  0  0  0  0  0
  1  2  1  0  0  0  0
  2  3  2  0  0  0  0
  2  4  1  0  0  0  0
  3  5  1  0  0  0  0
  3  6  1  0  0  0  0
  4  7  2  0  0  0  0
  6  8  2  0  0  0  0
  7  9  1  0  0  0  0
  8 10  1  0  0  0  0
  9 11  1  0  0  0  0
  9 12  1  0  0  0  0
 10 13  1  0  0  0  0
 12 14  1  0  0  0  0
 13 15  2  0  0  0  0
 13 16  1  0  0  0  0
 14 17  1  0  0  0  0
 14 18  1  0  0  0  0
 16 19  1  0  0  0  0
 19 20  1  0  0  0  0
 19 21  2  0  0  0  0
 20 22  1  0  0  0  0
 20 23  2  0  0  0  0
 21 24  1  0  0  0  0
 22 25  1  0  0  0  0
 22 26  2  0  0  0  0
 23 27  1  0  0  0  0
 26 28  1  0  0  0  0
  7  8  1  0  0  0  0
 10 11  1  0  0  0  0
 24 25  2  0  0  0  0
 27 28  2  0  0  0  0
  4 29  1  0  0  0  0
  6 30  1  0  0  0  0
 10 31  1  0  0  0  0
 11 32  1  0  0  0  0
 11 33  1  0  0  0  0
 12 34  1  0  0  0  0
 12 35  1  0  0  0  0
 14 36  1  0  0  0  0
 16 37  1  0  0  0  0
 17 38  1  0  0  0  0
 17 39  1  0  0  0  0
 17 40  1  0  0  0  0
 18 41  1  0  0  0  0
 18 42  1  0  0  0  0
 18 43  1  0  0  0  0
 21 44  1  0  0  0  0
 23 45  1  0  0  0  0
 25 46  1  0  0  0  0
 26 47  1  0  0  0  0
 27 48  1  0  0  0  0
M  END
> <BIOSOLVEIT.HYDE_ESTIMATED_AFFINITY_LOWER_BOUNDARY [nM]>
21596.550360

> <BIOSOLVEIT.HYDE_ESTIMATED_AFFINITY_UPPER_BOUNDARY [nM]>
2145744.967205

> <BIOSOLVEIT.HYDE_LIGAND_EFFICIENCY range: ++, +, 0, -, -->
--

> <BIOSOLVEIT.HYDE_LIGAND_LIPOPHILIC_EFFICIENCY range: ++, +, 0, -, -->
--

> <BIOSOLVEIT.INTER_CLASH range: red, yellow, green>
green

> <BIOSOLVEIT.INTRA_CLASH range: red, yellow, green>
green

> <BIOSOLVEIT.LOGP>
5.1349

> <BIOSOLVEIT.MOLECULAR WEIGHT>
415.322

> <BIOSOLVEIT.MOLECULE_CHECKSUM>
LTIwLjkzMTQ7MC43NDc1NDk=

> <BIOSOLVEIT.TORSION_QUALITY range: red, yellow, green, not rotatable>
green

> <BIOSOLVEIT.TPSA>
58.12

> <BIOSOLVEIT.SEESAR_FAVORITE>
favorite

> <smc_score>
0.938

> <QED_score>
0.642

> <distance>
0.507

> <SimilarityPheSA_1>
0.652

> <Smiles>
CC(C)CN1CC(C(=O)Nc2cncc3cnccc23)c2cc(Cl)c(Cl)cc21

> <Similarity_SkelSpheres>
0.783

> <Cluster No>
18.0

> <QueryID>
MIC-UNK-91acba05-6

> <SimilarityPheSA>
0.6515

> <Postera series>
3-aminopyridine-like

> <PDB_code>
Mpro-x12710, Mpro-P0033

> <Approach>
DGM_focussed_RL

> <ID>
20210618_34

> <SimilarityPheSA_2>
0.889

> <OPTIBRIUM.logD>
3.77649

> <OPTIBRIUM.BBB category>
-

> <OPTIBRIUM.logP>
3.96341

> <OPTIBRIUM.P-gp category>
yes

> <OPTIBRIUM.logS>
-0.221759

> <OPTIBRIUM.HIA category>
+

> <OPTIBRIUM.PPB90 category>
high

> <OPTIBRIUM.2D6 affinity category>
high

> <OPTIBRIUM.hERG pIC50>
5.1943

> <OPTIBRIUM.2C9 pKi>
6.06204

> <OPTIBRIUM.BBB log([brain]:[blood])>
-0.161836

> <OPTIBRIUM.logS @ pH7.4>
0.937286

$$$$
Compound 267_1_1
haSeeSAR  07122111353D 1   1.00000     0.00000     0
SeeSAR 11.0.2 hazemaj
 41 44  0  0  0  0            999 V2000
   12.8828    0.2919   25.3929 Cl  0  0  0  0  0  0  0  0  0  0  0  0
   11.6131   -0.2368   24.2613 C   0  0  0  0  0  0  0  0  0  0  0  0
   11.8751   -0.2189   22.8953 C   0  0  0  0  0  0  0  0  0  0  0  0
   10.3670   -0.6693   24.7022 C   0  0  0  0  0  0  0  0  0  0  0  0
   13.4539    0.3222   22.2770 Cl  0  0  0  0  0  0  0  0  0  0  0  0
   10.8971   -0.6264   21.9939 C   0  0  0  0  0  0  0  0  0  0  0  0
    9.3733   -1.0955   23.8279 C   0  0  0  0  0  0  0  0  0  0  0  0
    9.6607   -1.0554   22.4695 C   0  0  0  0  0  0  0  0  0  0  0  0
    8.1660   -1.5613   24.2355 O   0  0  0  0  0  0  0  0  0  0  0  0
    8.6279   -1.4700   21.4319 C   0  0  2  0  0  0  0  0  0  0  0  0
    7.0350   -1.6893   23.3867 C   0  0  0  0  0  0  0  0  0  0  0  0
    7.9915   -0.2651   20.7614 C   0  0  0  0  0  0  0  0  0  0  0  0
    7.5184   -2.2923   22.0771 C   0  0  0  0  0  0  0  0  0  0  0  0
    8.6951    0.6708   20.3814 O   0  0  0  0  0  0  0  0  0  0  0  0
    6.6809   -0.2212   20.5858 N   0  0  0  0  0  0  0  0  0  0  0  0
    6.1432    0.4770   19.4972 C   0  0  0  0  0  0  0  0  0  0  0  0
    6.6840    0.3734   18.2731 N   0  0  0  0  0  0  0  0  0  0  0  0
    5.0316    1.2955   19.6693 C   0  0  0  0  0  0  0  0  0  0  0  0
    6.2042    1.0107   17.2557 N   0  0  0  0  0  0  0  0  0  0  0  0
    4.5157    1.9779   18.5967 C   0  0  0  0  0  0  0  0  0  0  0  0
    4.2128    1.6318   20.7743 C   0  0  0  0  0  0  0  0  0  0  0  0
    5.1377    1.8147   17.3624 C   0  0  0  0  0  0  0  0  0  0  0  0
    3.4428    2.6790   19.0645 N   0  0  0  0  0  0  0  0  0  0  0  0
    3.2841    2.4586   20.3486 N   0  0  0  0  0  0  0  0  0  0  0  0
    2.5810    3.5521   18.2526 C   0  0  0  0  0  0  0  0  0  0  0  0
    1.2267    3.6968   18.9276 C   0  0  0  0  0  0  0  0  0  0  0  0
   10.1787   -0.6740   25.6843 H   0  0  0  0  0  0  0  0  0  0  0  0
   11.0807   -0.6112   21.0110 H   0  0  0  0  0  0  0  0  0  0  0  0
    9.0778   -2.0271   20.7339 H   0  0  0  0  0  0  0  0  0  0  0  0
    6.6285   -0.7909   23.2203 H   0  0  0  0  0  0  0  0  0  0  0  0
    6.3558   -2.2892   23.8097 H   0  0  0  0  0  0  0  0  0  0  0  0
    7.8641   -3.2134   22.2561 H   0  0  0  0  0  0  0  0  0  0  0  0
    6.7467   -2.3435   21.4431 H   0  0  0  0  0  0  0  0  0  0  0  0
    6.0742   -0.6866   21.2303 H   0  0  0  0  0  0  0  0  0  0  0  0
    4.3217    1.2995   21.7113 H   0  0  0  0  0  0  0  0  0  0  0  0
    4.7898    2.2958   16.5578 H   0  0  0  0  0  0  0  0  0  0  0  0
    2.4598    3.1501   17.3450 H   0  0  0  0  0  0  0  0  0  0  0  0
    3.0073    4.4523   18.1641 H   0  0  0  0  0  0  0  0  0  0  0  0
    0.6409    4.2903   18.3756 H   0  0  0  0  0  0  0  0  0  0  0  0
    0.8005    2.7965   19.0160 H   0  0  0  0  0  0  0  0  0  0  0  0
    1.3480    4.0988   19.8351 H   0  0  0  0  0  0  0  0  0  0  0  0
  1  2  1  0  0  0  0
  2  3  2  0  0  0  0
  2  4  1  0  0  0  0
  3  5  1  0  0  0  0
  3  6  1  0  0  0  0
  4  7  2  0  0  0  0
  6  8  2  0  0  0  0
  7  9  1  0  0  0  0
  8 10  1  0  0  0  0
  9 11  1  0  0  0  0
 10 12  1  0  0  0  0
 10 13  1  0  0  0  0
 12 14  2  0  0  0  0
 12 15  1  0  0  0  0
 15 16  1  0  0  0  0
 16 17  2  0  0  0  0
 16 18  1  0  0  0  0
 17 19  1  0  0  0  0
 18 20  2  0  0  0  0
 18 21  1  0  0  0  0
 19 22  2  0  0  0  0
 20 23  1  0  0  0  0
 21 24  2  0  0  0  0
 23 25  1  0  0  0  0
 25 26  1  0  0  0  0
  7  8  1  0  0  0  0
 11 13  1  0  0  0  0
 20 22  1  0  0  0  0
 23 24  1  0  0  0  0
  4 27  1  0  0  0  0
  6 28  1  0  0  0  0
 10 29  1  0  0  0  0
 11 30  1  0  0  0  0
 11 31  1  0  0  0  0
 13 32  1  0  0  0  0
 13 33  1  0  0  0  0
 15 34  1  0  0  0  0
 21 35  1  0  0  0  0
 22 36  1  0  0  0  0
 25 37  1  0  0  0  0
 25 38  1  0  0  0  0
 26 39  1  0  0  0  0
 26 40  1  0  0  0  0
 26 41  1  0  0  0  0
M  END
> <BIOSOLVEIT.HYDE_ESTIMATED_AFFINITY_LOWER_BOUNDARY [nM]>
23568.284264

> <BIOSOLVEIT.HYDE_ESTIMATED_AFFINITY_UPPER_BOUNDARY [nM]>
2341648.388337

> <BIOSOLVEIT.HYDE_LIGAND_EFFICIENCY range: ++, +, 0, -, -->
--

> <BIOSOLVEIT.HYDE_LIGAND_LIPOPHILIC_EFFICIENCY range: ++, +, 0, -, -->
--

> <BIOSOLVEIT.INTER_CLASH range: red, yellow, green>
red

> <BIOSOLVEIT.INTRA_CLASH range: red, yellow, green>
green

> <BIOSOLVEIT.LOGP>
3.6578

> <BIOSOLVEIT.MOLECULAR WEIGHT>
392.245

> <BIOSOLVEIT.MOLECULE_CHECKSUM>
LTIwLjcxNDg7MC43OTY3MjM=

> <BIOSOLVEIT.TORSION_QUALITY range: red, yellow, green, not rotatable>
red

> <BIOSOLVEIT.TPSA>
81.93

> <BIOSOLVEIT.SEESAR_FAVORITE>
favorite

> <smc_score>
1.0

> <QED_score>
0.736

> <distance>
0.514

> <SimilarityPheSA_1>
0.675

> <Smiles>
CCn1ncc2c(NC(=O)C3CCOc4cc(Cl)c(Cl)cc43)nncc21

> <Similarity_SkelSpheres>
0.761

> <Cluster No>
130.0

> <QueryID>
MAT-POS-8a69d52e-7

> <SimilarityPheSA>
0.6747

> <Postera series>
3-aminopyridine-like

> <PDB_code>
Mpro-x12073

> <Approach>
DGM_focussed_RL

> <ID>
20210618_266

> <SimilarityPheSA_2>
0.926

> <OPTIBRIUM.logD>
3.38623

> <OPTIBRIUM.BBB category>
-

> <OPTIBRIUM.logP>
3.38623

> <OPTIBRIUM.P-gp category>
yes

> <OPTIBRIUM.logS>
0.812374

> <OPTIBRIUM.HIA category>
+

> <OPTIBRIUM.PPB90 category>
high

> <OPTIBRIUM.2D6 affinity category>
high

> <OPTIBRIUM.hERG pIC50>
5.38806

> <OPTIBRIUM.2C9 pKi>
5.55858

> <OPTIBRIUM.BBB log([brain]:[blood])>
-0.533626

> <OPTIBRIUM.logS @ pH7.4>
0.812374

$$$$
Compound 539_1_05
haSeeSAR  07122111353D 1   1.00000     0.00000     0
SeeSAR 11.0.2 hazemaj
 39 42  0  0  0  0            999 V2000
    9.8865    2.4741   22.6929 Cl  0  0  0  0  0  0  0  0  0  0  0  0
   10.4903    0.7987   22.6816 C   0  0  0  0  0  0  0  0  0  0  0  0
   11.8558    0.5967   22.8413 C   0  0  0  0  0  0  0  0  0  0  0  0
    9.6540   -0.3030   22.5148 C   0  0  0  0  0  0  0  0  0  0  0  0
   12.9388    1.9911   23.0706 Cl  0  0  0  0  0  0  0  0  0  0  0  0
   12.3663   -0.6960   22.8220 C   0  0  0  0  0  0  0  0  0  0  0  0
   10.1475   -1.5902   22.5337 C   0  0  0  0  0  0  0  0  0  0  0  0
    8.1602   -0.4061   22.2786 C   0  0  1  0  0  0  0  0  0  0  0  0
   11.5183   -1.7868   22.6691 C   0  0  0  0  0  0  0  0  0  0  0  0
    9.1448   -2.4808   22.4334 O   0  0  0  0  0  0  0  0  0  0  0  0
    7.6647    0.4689   21.1389 C   0  0  0  0  0  0  0  0  0  0  0  0
    8.0235   -1.8494   21.8444 C   0  0  0  0  0  0  0  0  0  0  0  0
    8.3975    1.3380   20.6666 O   0  0  0  0  0  0  0  0  0  0  0  0
    6.4457    0.2966   20.6545 N   0  0  0  0  0  0  0  0  0  0  0  0
    6.1797    0.5825   19.3092 C   0  0  0  0  0  0  0  0  0  0  0  0
    5.1137    1.2799   18.8241 N   0  0  0  0  0  0  0  0  0  0  0  0
    6.9487    0.2061   18.2493 C   0  0  0  0  0  0  0  0  0  0  0  0
    5.2237    1.3360   17.4678 C   0  0  0  0  0  0  0  0  0  0  0  0
    4.0297    1.8730   19.6220 C   0  0  0  0  0  0  0  0  0  0  0  0
    6.3176    0.6874   17.1434 N   0  3  0  0  0  0  0  0  0  0  0  0
    4.6244    2.7522   20.7109 C   0  0  0  0  0  0  0  0  0  0  0  0
    4.1345    2.3341   22.0665 C   0  0  0  0  0  0  0  0  0  0  0  0
    3.5840    3.5719   21.4182 C   0  0  0  0  0  0  0  0  0  0  0  0
   13.3508   -0.8422   22.9188 H   0  0  0  0  0  0  0  0  0  0  0  0
    7.6476   -0.2306   23.1191 H   0  0  0  0  0  0  0  0  0  0  0  0
   11.8938   -2.7135   22.6564 H   0  0  0  0  0  0  0  0  0  0  0  0
    8.0525   -1.9271   20.8478 H   0  0  0  0  0  0  0  0  0  0  0  0
    7.1708   -2.2456   22.1849 H   0  0  0  0  0  0  0  0  0  0  0  0
    5.7142   -0.0378   21.2486 H   0  0  0  0  0  0  0  0  0  0  0  0
    7.8010   -0.3161   18.2779 H   0  0  0  0  0  0  0  0  0  0  0  0
    4.5906    1.7864   16.8381 H   0  0  0  0  0  0  0  0  0  0  0  0
    3.4872    1.1448   20.0407 H   0  0  0  0  0  0  0  0  0  0  0  0
    3.4442    2.4264   19.0295 H   0  0  0  0  0  0  0  0  0  0  0  0
    5.5523    3.1104   20.6076 H   0  0  0  0  0  0  0  0  0  0  0  0
    4.7363    2.4116   22.8613 H   0  0  0  0  0  0  0  0  0  0  0  0
    3.5594    1.5216   22.1616 H   0  0  0  0  0  0  0  0  0  0  0  0
    2.6425    3.5836   21.0815 H   0  0  0  0  0  0  0  0  0  0  0  0
    3.8193    4.4735   21.7812 H   0  0  0  0  0  0  0  0  0  0  0  0
    6.6446    0.5629   16.2066 H   0  0  0  0  0  0  0  0  0  0  0  0
  1  2  1  0  0  0  0
  2  3  2  0  0  0  0
  2  4  1  0  0  0  0
  3  5  1  0  0  0  0
  3  6  1  0  0  0  0
  4  7  2  0  0  0  0
  4  8  1  0  0  0  0
  6  9  2  0  0  0  0
  7 10  1  0  0  0  0
  8 11  1  0  0  0  0
  8 12  1  0  0  0  0
 11 13  2  0  0  0  0
 11 14  1  0  0  0  0
 14 15  1  0  0  0  0
 15 16  1  0  0  0  0
 15 17  2  0  0  0  0
 16 18  1  0  0  0  0
 16 19  1  0  0  0  0
 17 20  1  0  0  0  0
 19 21  1  0  0  0  0
 21 22  1  0  0  0  0
 21 23  1  0  0  0  0
  7  9  1  0  0  0  0
 10 12  1  0  0  0  0
 18 20  2  0  0  0  0
 22 23  1  0  0  0  0
  6 24  1  0  0  0  0
  8 25  1  0  0  0  0
  9 26  1  0  0  0  0
 12 27  1  0  0  0  0
 12 28  1  0  0  0  0
 14 29  1  0  0  0  0
 17 30  1  0  0  0  0
 18 31  1  0  0  0  0
 19 32  1  0  0  0  0
 19 33  1  0  0  0  0
 21 34  1  0  0  0  0
 22 35  1  0  0  0  0
 22 36  1  0  0  0  0
 23 37  1  0  0  0  0
 23 38  1  0  0  0  0
 20 39  1  0  0  0  0
M  CHG  1  20   1
M  END
> <BIOSOLVEIT.HYDE_ESTIMATED_AFFINITY_LOWER_BOUNDARY [nM]>
28011.787703

> <BIOSOLVEIT.HYDE_ESTIMATED_AFFINITY_UPPER_BOUNDARY [nM]>
2783136.727080

> <BIOSOLVEIT.HYDE_LIGAND_EFFICIENCY range: ++, +, 0, -, -->
-

> <BIOSOLVEIT.HYDE_LIGAND_LIPOPHILIC_EFFICIENCY range: ++, +, 0, -, -->
--

> <BIOSOLVEIT.INTER_CLASH range: red, yellow, green>
green

> <BIOSOLVEIT.INTRA_CLASH range: red, yellow, green>
red

> <BIOSOLVEIT.LOGP>
3.1337

> <BIOSOLVEIT.MOLECULAR WEIGHT>
353.227

> <BIOSOLVEIT.MOLECULE_CHECKSUM>
LTIwLjI4NjY7MC44ODIwMjc=

> <BIOSOLVEIT.TORSION_QUALITY range: red, yellow, green, not rotatable>
red

> <BIOSOLVEIT.TPSA>
57.4

> <BIOSOLVEIT.SEESAR_FAVORITE>
favorite

> <smc_score>
0.688

> <QED_score>
0.913

> <distance>
0.622

> <SimilarityPheSA_1>
0.726

> <Smiles>
O=C(Nc1cncn1CC1CC1)C1COc2ccc(Cl)c(Cl)c21

> <Similarity_SkelSpheres>
0.607

> <Cluster No>
288.0

> <QueryID>
JAG-UCB-a3ef7265-20

> <SimilarityPheSA>
0.7258

> <Postera series>
3-aminopyridine-like

> <PDB_code>
Mpro-x10324

> <Approach>
DGM_focussed_RL

> <ID>
20210618_538

> <SimilarityPheSA_2>
0.841

> <OPTIBRIUM.logD>
3.84148

> <OPTIBRIUM.BBB category>
-

> <OPTIBRIUM.logP>
3.84148

> <OPTIBRIUM.P-gp category>
no

> <OPTIBRIUM.logS>
1.56688

> <OPTIBRIUM.HIA category>
+

> <OPTIBRIUM.PPB90 category>
high

> <OPTIBRIUM.2D6 affinity category>
high

> <OPTIBRIUM.hERG pIC50>
4.88554

> <OPTIBRIUM.2C9 pKi>
5.21785

> <OPTIBRIUM.BBB log([brain]:[blood])>
-0.045877

> <OPTIBRIUM.logS @ pH7.4>
1.56688

$$$$
Compound 539_1_01
haSeeSAR  07122111353D 1   1.00000     0.00000     0
SeeSAR 11.0.2 hazemaj
 38 41  0  0  0  0            999 V2000
    9.9214    2.5954   22.5966 Cl  0  0  0  0  0  0  0  0  0  0  0  0
   10.4210    0.8942   22.7654 C   0  0  0  0  0  0  0  0  0  0  0  0
   11.7702    0.6274   22.9629 C   0  0  0  0  0  0  0  0  0  0  0  0
    9.5195   -0.1660   22.7019 C   0  0  0  0  0  0  0  0  0  0  0  0
   12.9356    1.9700   23.0616 Cl  0  0  0  0  0  0  0  0  0  0  0  0
   12.2003   -0.6887   23.0832 C   0  0  0  0  0  0  0  0  0  0  0  0
    9.9326   -1.4719   22.8596 C   0  0  0  0  0  0  0  0  0  0  0  0
    8.0238   -0.2023   22.4581 C   0  0  1  0  0  0  0  0  0  0  0  0
   11.2878   -1.7361   23.0323 C   0  0  0  0  0  0  0  0  0  0  0  0
    8.8777   -2.3058   22.8383 O   0  0  0  0  0  0  0  0  0  0  0  0
    7.5908    0.5785   21.2281 C   0  0  0  0  0  0  0  0  0  0  0  0
    7.8013   -1.6720   22.1729 C   0  0  0  0  0  0  0  0  0  0  0  0
    8.3944    1.3087   20.6482 O   0  0  0  0  0  0  0  0  0  0  0  0
    6.3501    0.4735   20.7809 N   0  0  0  0  0  0  0  0  0  0  0  0
    6.0832    0.6253   19.4142 C   0  0  0  0  0  0  0  0  0  0  0  0
    5.2051    1.5015   18.8577 N   0  0  0  0  0  0  0  0  0  0  0  0
    6.6599   -0.0856   18.4068 C   0  0  0  0  0  0  0  0  0  0  0  0
    5.2448    1.3246   17.5066 C   0  0  0  0  0  0  0  0  0  0  0  0
    4.3633    2.4666   19.5789 C   0  0  0  0  0  0  0  0  0  0  0  0
    6.1156    0.3745   17.2453 N   0  0  0  0  0  0  0  0  0  0  0  0
    3.3126    1.7196   20.3853 C   0  0  0  0  0  0  0  0  0  0  0  0
    2.2440    2.6540   20.8722 C   0  0  0  0  0  0  0  0  0  0  0  0
    3.2862    2.1436   21.8255 C   0  0  0  0  0  0  0  0  0  0  0  0
   13.1732   -0.8837   23.2074 H   0  0  0  0  0  0  0  0  0  0  0  0
    7.5174    0.0899   23.2694 H   0  0  0  0  0  0  0  0  0  0  0  0
   11.6056   -2.6802   23.1199 H   0  0  0  0  0  0  0  0  0  0  0  0
    7.8322   -1.8538   21.1901 H   0  0  0  0  0  0  0  0  0  0  0  0
    6.9236   -1.9783   22.5412 H   0  0  0  0  0  0  0  0  0  0  0  0
    5.6030    0.2859   21.4184 H   0  0  0  0  0  0  0  0  0  0  0  0
    7.3484   -0.8048   18.5008 H   0  0  0  0  0  0  0  0  0  0  0  0
    4.7059    1.8292   16.8321 H   0  0  0  0  0  0  0  0  0  0  0  0
    3.9122    3.0712   18.9225 H   0  0  0  0  0  0  0  0  0  0  0  0
    4.9328    3.0099   20.1958 H   0  0  0  0  0  0  0  0  0  0  0  0
    3.0755    0.7793   20.1406 H   0  0  0  0  0  0  0  0  0  0  0  0
    1.2989    2.3367   20.9481 H   0  0  0  0  0  0  0  0  0  0  0  0
    2.2519    3.6133   20.5896 H   0  0  0  0  0  0  0  0  0  0  0  0
    3.9883    2.7628   22.1775 H   0  0  0  0  0  0  0  0  0  0  0  0
    3.0351    1.4861   22.5359 H   0  0  0  0  0  0  0  0  0  0  0  0
  1  2  1  0  0  0  0
  2  3  2  0  0  0  0
  2  4  1  0  0  0  0
  3  5  1  0  0  0  0
  3  6  1  0  0  0  0
  4  7  2  0  0  0  0
  4  8  1  0  0  0  0
  6  9  2  0  0  0  0
  7 10  1  0  0  0  0
  8 11  1  0  0  0  0
  8 12  1  0  0  0  0
 11 13  2  0  0  0  0
 11 14  1  0  0  0  0
 14 15  1  0  0  0  0
 15 16  1  0  0  0  0
 15 17  2  0  0  0  0
 16 18  1  0  0  0  0
 16 19  1  0  0  0  0
 17 20  1  0  0  0  0
 19 21  1  0  0  0  0
 21 22  1  0  0  0  0
 21 23  1  0  0  0  0
  7  9  1  0  0  0  0
 10 12  1  0  0  0  0
 18 20  2  0  0  0  0
 22 23  1  0  0  0  0
  6 24  1  0  0  0  0
  8 25  1  0  0  0  0
  9 26  1  0  0  0  0
 12 27  1  0  0  0  0
 12 28  1  0  0  0  0
 14 29  1  0  0  0  0
 17 30  1  0  0  0  0
 18 31  1  0  0  0  0
 19 32  1  0  0  0  0
 19 33  1  0  0  0  0
 21 34  1  0  0  0  0
 22 35  1  0  0  0  0
 22 36  1  0  0  0  0
 23 37  1  0  0  0  0
 23 38  1  0  0  0  0
M  END
> <BIOSOLVEIT.HYDE_ESTIMATED_AFFINITY_LOWER_BOUNDARY [nM]>
30109.438029

> <BIOSOLVEIT.HYDE_ESTIMATED_AFFINITY_UPPER_BOUNDARY [nM]>
2991550.689278

> <BIOSOLVEIT.HYDE_LIGAND_EFFICIENCY range: ++, +, 0, -, -->
-

> <BIOSOLVEIT.HYDE_LIGAND_LIPOPHILIC_EFFICIENCY range: ++, +, 0, -, -->
--

> <BIOSOLVEIT.INTER_CLASH range: red, yellow, green>
green

> <BIOSOLVEIT.INTRA_CLASH range: red, yellow, green>
yellow

> <BIOSOLVEIT.LOGP>
3.7146

> <BIOSOLVEIT.MOLECULAR WEIGHT>
352.22

> <BIOSOLVEIT.MOLECULE_CHECKSUM>
LTIwLjEwNzY7MC44NzQyNDQ=

> <BIOSOLVEIT.TORSION_QUALITY range: red, yellow, green, not rotatable>
yellow

> <BIOSOLVEIT.TPSA>
56.15

> <BIOSOLVEIT.SEESAR_FAVORITE>
favorite

> <smc_score>
0.688

> <QED_score>
0.913

> <distance>
0.622

> <SimilarityPheSA_1>
0.726

> <Smiles>
O=C(Nc1cncn1CC1CC1)C1COc2ccc(Cl)c(Cl)c21

> <Similarity_SkelSpheres>
0.607

> <Cluster No>
288.0

> <QueryID>
JAG-UCB-a3ef7265-20

> <SimilarityPheSA>
0.7258

> <Postera series>
3-aminopyridine-like

> <PDB_code>
Mpro-x10324

> <Approach>
DGM_focussed_RL

> <ID>
20210618_538

> <SimilarityPheSA_2>
0.841

> <OPTIBRIUM.logD>
3.84148

> <OPTIBRIUM.BBB category>
-

> <OPTIBRIUM.logP>
3.84148

> <OPTIBRIUM.P-gp category>
no

> <OPTIBRIUM.logS>
1.56688

> <OPTIBRIUM.HIA category>
+

> <OPTIBRIUM.PPB90 category>
high

> <OPTIBRIUM.2D6 affinity category>
high

> <OPTIBRIUM.hERG pIC50>
4.88554

> <OPTIBRIUM.2C9 pKi>
5.21785

> <OPTIBRIUM.BBB log([brain]:[blood])>
-0.045877

> <OPTIBRIUM.logS @ pH7.4>
1.56688

$$$$
Compound 539_1_02
haSeeSAR  07122111353D 1   1.00000     0.00000     0
SeeSAR 11.0.2 hazemaj
 38 41  0  0  0  0            999 V2000
    9.8604    2.5036   22.6586 Cl  0  0  0  0  0  0  0  0  0  0  0  0
   10.5108    0.8463   22.7044 C   0  0  0  0  0  0  0  0  0  0  0  0
   11.8830    0.6883   22.8542 C   0  0  0  0  0  0  0  0  0  0  0  0
    9.7036   -0.2836   22.5911 C   0  0  0  0  0  0  0  0  0  0  0  0
   12.9292    2.1199   23.0154 Cl  0  0  0  0  0  0  0  0  0  0  0  0
   12.4293   -0.5895   22.8782 C   0  0  0  0  0  0  0  0  0  0  0  0
   10.2332   -1.5551   22.6534 C   0  0  0  0  0  0  0  0  0  0  0  0
    8.2106   -0.4370   22.3782 C   0  0  1  0  0  0  0  0  0  0  0  0
   11.6106   -1.7084   22.7786 C   0  0  0  0  0  0  0  0  0  0  0  0
    9.2548   -2.4762   22.6005 O   0  0  0  0  0  0  0  0  0  0  0  0
    7.6775    0.3789   21.2120 C   0  0  0  0  0  0  0  0  0  0  0  0
    8.1093   -1.8994   22.0020 C   0  0  0  0  0  0  0  0  0  0  0  0
    8.4039    1.2001   20.6521 O   0  0  0  0  0  0  0  0  0  0  0  0
    6.4325    0.2069   20.7987 N   0  0  0  0  0  0  0  0  0  0  0  0
    6.1059    0.4170   19.4529 C   0  0  0  0  0  0  0  0  0  0  0  0
    5.0841    1.1800   18.9818 N   0  0  0  0  0  0  0  0  0  0  0  0
    6.7597   -0.1133   18.3831 C   0  0  0  0  0  0  0  0  0  0  0  0
    5.1129    1.1149   17.6205 C   0  0  0  0  0  0  0  0  0  0  0  0
    4.1202    1.9394   19.7908 C   0  0  0  0  0  0  0  0  0  0  0  0
    6.1162    0.3401   17.2706 N   0  0  0  0  0  0  0  0  0  0  0  0
    4.8691    2.7976   20.7984 C   0  0  0  0  0  0  0  0  0  0  0  0
    4.4753    2.4442   22.2029 C   0  0  0  0  0  0  0  0  0  0  0  0
    3.9548    3.7037   21.5718 C   0  0  0  0  0  0  0  0  0  0  0  0
   13.4186   -0.7048   22.9679 H   0  0  0  0  0  0  0  0  0  0  0  0
    7.7033   -0.2430   23.2178 H   0  0  0  0  0  0  0  0  0  0  0  0
   12.0117   -2.6242   22.7969 H   0  0  0  0  0  0  0  0  0  0  0  0
    8.1288   -2.0149   21.0089 H   0  0  0  0  0  0  0  0  0  0  0  0
    7.2721   -2.3053   22.3684 H   0  0  0  0  0  0  0  0  0  0  0  0
    5.7246   -0.0733   21.4471 H   0  0  0  0  0  0  0  0  0  0  0  0
    7.5563   -0.7172   18.4087 H   0  0  0  0  0  0  0  0  0  0  0  0
    4.4815    1.5759   16.9969 H   0  0  0  0  0  0  0  0  0  0  0  0
    3.5186    1.3046   20.2755 H   0  0  0  0  0  0  0  0  0  0  0  0
    3.5736    2.5267   19.1939 H   0  0  0  0  0  0  0  0  0  0  0  0
    5.8062    3.0871   20.6040 H   0  0  0  0  0  0  0  0  0  0  0  0
    5.1499    2.4959   22.9393 H   0  0  0  0  0  0  0  0  0  0  0  0
    3.8569    1.6766   22.3707 H   0  0  0  0  0  0  0  0  0  0  0  0
    2.9898    3.7745   21.3190 H   0  0  0  0  0  0  0  0  0  0  0  0
    4.2829    4.5939   21.8876 H   0  0  0  0  0  0  0  0  0  0  0  0
  1  2  1  0  0  0  0
  2  3  2  0  0  0  0
  2  4  1  0  0  0  0
  3  5  1  0  0  0  0
  3  6  1  0  0  0  0
  4  7  2  0  0  0  0
  4  8  1  0  0  0  0
  6  9  2  0  0  0  0
  7 10  1  0  0  0  0
  8 11  1  0  0  0  0
  8 12  1  0  0  0  0
 11 13  2  0  0  0  0
 11 14  1  0  0  0  0
 14 15  1  0  0  0  0
 15 16  1  0  0  0  0
 15 17  2  0  0  0  0
 16 18  1  0  0  0  0
 16 19  1  0  0  0  0
 17 20  1  0  0  0  0
 19 21  1  0  0  0  0
 21 22  1  0  0  0  0
 21 23  1  0  0  0  0
  7  9  1  0  0  0  0
 10 12  1  0  0  0  0
 18 20  2  0  0  0  0
 22 23  1  0  0  0  0
  6 24  1  0  0  0  0
  8 25  1  0  0  0  0
  9 26  1  0  0  0  0
 12 27  1  0  0  0  0
 12 28  1  0  0  0  0
 14 29  1  0  0  0  0
 17 30  1  0  0  0  0
 18 31  1  0  0  0  0
 19 32  1  0  0  0  0
 19 33  1  0  0  0  0
 21 34  1  0  0  0  0
 22 35  1  0  0  0  0
 22 36  1  0  0  0  0
 23 37  1  0  0  0  0
 23 38  1  0  0  0  0
M  END
> <BIOSOLVEIT.HYDE_ESTIMATED_AFFINITY_LOWER_BOUNDARY [nM]>
30742.517614

> <BIOSOLVEIT.HYDE_ESTIMATED_AFFINITY_UPPER_BOUNDARY [nM]>
3054450.889055

> <BIOSOLVEIT.HYDE_LIGAND_EFFICIENCY range: ++, +, 0, -, -->
-

> <BIOSOLVEIT.HYDE_LIGAND_LIPOPHILIC_EFFICIENCY range: ++, +, 0, -, -->
--

> <BIOSOLVEIT.INTER_CLASH range: red, yellow, green>
green

> <BIOSOLVEIT.INTRA_CLASH range: red, yellow, green>
yellow

> <BIOSOLVEIT.LOGP>
3.7146

> <BIOSOLVEIT.MOLECULAR WEIGHT>
352.22

> <BIOSOLVEIT.MOLECULE_CHECKSUM>
LTIwLjA1NjswLjg3MjAwMQ==

> <BIOSOLVEIT.TORSION_QUALITY range: red, yellow, green, not rotatable>
red

> <BIOSOLVEIT.TPSA>
56.15

> <BIOSOLVEIT.SEESAR_FAVORITE>
favorite

> <smc_score>
0.688

> <QED_score>
0.913

> <distance>
0.622

> <SimilarityPheSA_1>
0.726

> <Smiles>
O=C(Nc1cncn1CC1CC1)C1COc2ccc(Cl)c(Cl)c21

> <Similarity_SkelSpheres>
0.607

> <Cluster No>
288.0

> <QueryID>
JAG-UCB-a3ef7265-20

> <SimilarityPheSA>
0.7258

> <Postera series>
3-aminopyridine-like

> <PDB_code>
Mpro-x10324

> <Approach>
DGM_focussed_RL

> <ID>
20210618_538

> <SimilarityPheSA_2>
0.841

> <OPTIBRIUM.logD>
3.84148

> <OPTIBRIUM.BBB category>
-

> <OPTIBRIUM.logP>
3.84148

> <OPTIBRIUM.P-gp category>
no

> <OPTIBRIUM.logS>
1.56688

> <OPTIBRIUM.HIA category>
+

> <OPTIBRIUM.PPB90 category>
high

> <OPTIBRIUM.2D6 affinity category>
high

> <OPTIBRIUM.hERG pIC50>
4.88554

> <OPTIBRIUM.2C9 pKi>
5.21785

> <OPTIBRIUM.BBB log([brain]:[blood])>
-0.045877

> <OPTIBRIUM.logS @ pH7.4>
1.56688

$$$$
Compound 539_1_03
haSeeSAR  07122111353D 1   1.00000     0.00000     0
SeeSAR 11.0.2 hazemaj
 38 41  0  0  0  0            999 V2000
    9.8604    2.5037   22.6586 Cl  0  0  0  0  0  0  0  0  0  0  0  0
   10.5108    0.8463   22.7044 C   0  0  0  0  0  0  0  0  0  0  0  0
   11.8830    0.6883   22.8542 C   0  0  0  0  0  0  0  0  0  0  0  0
    9.7036   -0.2835   22.5911 C   0  0  0  0  0  0  0  0  0  0  0  0
   12.9293    2.1199   23.0154 Cl  0  0  0  0  0  0  0  0  0  0  0  0
   12.4293   -0.5895   22.8782 C   0  0  0  0  0  0  0  0  0  0  0  0
   10.2332   -1.5550   22.6534 C   0  0  0  0  0  0  0  0  0  0  0  0
    8.2107   -0.4369   22.3782 C   0  0  1  0  0  0  0  0  0  0  0  0
   11.6106   -1.7083   22.7786 C   0  0  0  0  0  0  0  0  0  0  0  0
    9.2548   -2.4761   22.6005 O   0  0  0  0  0  0  0  0  0  0  0  0
    7.6774    0.3790   21.2121 C   0  0  0  0  0  0  0  0  0  0  0  0
    8.1093   -1.8993   22.0020 C   0  0  0  0  0  0  0  0  0  0  0  0
    8.4038    1.2002   20.6522 O   0  0  0  0  0  0  0  0  0  0  0  0
    6.4326    0.2069   20.7987 N   0  0  0  0  0  0  0  0  0  0  0  0
    6.1060    0.4170   19.4529 C   0  0  0  0  0  0  0  0  0  0  0  0
    5.0843    1.1801   18.9818 N   0  0  0  0  0  0  0  0  0  0  0  0
    6.7597   -0.1134   18.3831 C   0  0  0  0  0  0  0  0  0  0  0  0
    5.1130    1.1150   17.6205 C   0  0  0  0  0  0  0  0  0  0  0  0
    4.1205    1.9397   19.7908 C   0  0  0  0  0  0  0  0  0  0  0  0
    6.1162    0.3400   17.2706 N   0  0  0  0  0  0  0  0  0  0  0  0
    4.8694    2.7976   20.7985 C   0  0  0  0  0  0  0  0  0  0  0  0
    4.4757    2.4442   22.2029 C   0  0  0  0  0  0  0  0  0  0  0  0
    3.9552    3.7037   21.5719 C   0  0  0  0  0  0  0  0  0  0  0  0
   13.4186   -0.7048   22.9679 H   0  0  0  0  0  0  0  0  0  0  0  0
    7.7033   -0.2429   23.2178 H   0  0  0  0  0  0  0  0  0  0  0  0
   12.0117   -2.6241   22.7969 H   0  0  0  0  0  0  0  0  0  0  0  0
    8.1288   -2.0149   21.0089 H   0  0  0  0  0  0  0  0  0  0  0  0
    7.2721   -2.3053   22.3685 H   0  0  0  0  0  0  0  0  0  0  0  0
    5.7246   -0.0734   21.4471 H   0  0  0  0  0  0  0  0  0  0  0  0
    7.5562   -0.7174   18.4087 H   0  0  0  0  0  0  0  0  0  0  0  0
    4.4817    1.5760   16.9969 H   0  0  0  0  0  0  0  0  0  0  0  0
    3.5187    1.3049   20.2754 H   0  0  0  0  0  0  0  0  0  0  0  0
    3.5740    2.5271   19.1939 H   0  0  0  0  0  0  0  0  0  0  0  0
    5.8066    3.0871   20.6040 H   0  0  0  0  0  0  0  0  0  0  0  0
    5.1503    2.4958   22.9393 H   0  0  0  0  0  0  0  0  0  0  0  0
    3.8572    1.6765   22.3707 H   0  0  0  0  0  0  0  0  0  0  0  0
    2.9903    3.7747   21.3192 H   0  0  0  0  0  0  0  0  0  0  0  0
    4.2835    4.5939   21.8878 H   0  0  0  0  0  0  0  0  0  0  0  0
  1  2  1  0  0  0  0
  2  3  2  0  0  0  0
  2  4  1  0  0  0  0
  3  5  1  0  0  0  0
  3  6  1  0  0  0  0
  4  7  2  0  0  0  0
  4  8  1  0  0  0  0
  6  9  2  0  0  0  0
  7 10  1  0  0  0  0
  8 11  1  0  0  0  0
  8 12  1  0  0  0  0
 11 13  2  0  0  0  0
 11 14  1  0  0  0  0
 14 15  1  0  0  0  0
 15 16  1  0  0  0  0
 15 17  2  0  0  0  0
 16 18  1  0  0  0  0
 16 19  1  0  0  0  0
 17 20  1  0  0  0  0
 19 21  1  0  0  0  0
 21 22  1  0  0  0  0
 21 23  1  0  0  0  0
  7  9  1  0  0  0  0
 10 12  1  0  0  0  0
 18 20  2  0  0  0  0
 22 23  1  0  0  0  0
  6 24  1  0  0  0  0
  8 25  1  0  0  0  0
  9 26  1  0  0  0  0
 12 27  1  0  0  0  0
 12 28  1  0  0  0  0
 14 29  1  0  0  0  0
 17 30  1  0  0  0  0
 18 31  1  0  0  0  0
 19 32  1  0  0  0  0
 19 33  1  0  0  0  0
 21 34  1  0  0  0  0
 22 35  1  0  0  0  0
 22 36  1  0  0  0  0
 23 37  1  0  0  0  0
 23 38  1  0  0  0  0
M  END
> <BIOSOLVEIT.HYDE_ESTIMATED_AFFINITY_LOWER_BOUNDARY [nM]>
30758.460716

> <BIOSOLVEIT.HYDE_ESTIMATED_AFFINITY_UPPER_BOUNDARY [nM]>
3056034.930547

> <BIOSOLVEIT.HYDE_LIGAND_EFFICIENCY range: ++, +, 0, -, -->
-

> <BIOSOLVEIT.HYDE_LIGAND_LIPOPHILIC_EFFICIENCY range: ++, +, 0, -, -->
--

> <BIOSOLVEIT.INTER_CLASH range: red, yellow, green>
green

> <BIOSOLVEIT.INTRA_CLASH range: red, yellow, green>
yellow

> <BIOSOLVEIT.LOGP>
3.7146

> <BIOSOLVEIT.MOLECULAR WEIGHT>
352.22

> <BIOSOLVEIT.MOLECULE_CHECKSUM>
LTIwLjA1NDc7MC44NzE5NDU=

> <BIOSOLVEIT.TORSION_QUALITY range: red, yellow, green, not rotatable>
red

> <BIOSOLVEIT.TPSA>
56.15

> <BIOSOLVEIT.SEESAR_FAVORITE>
favorite

> <smc_score>
0.688

> <QED_score>
0.913

> <distance>
0.622

> <SimilarityPheSA_1>
0.726

> <Smiles>
O=C(Nc1cncn1CC1CC1)C1COc2ccc(Cl)c(Cl)c21

> <Similarity_SkelSpheres>
0.607

> <Cluster No>
288.0

> <QueryID>
JAG-UCB-a3ef7265-20

> <SimilarityPheSA>
0.7258

> <Postera series>
3-aminopyridine-like

> <PDB_code>
Mpro-x10324

> <Approach>
DGM_focussed_RL

> <ID>
20210618_538

> <SimilarityPheSA_2>
0.841

> <OPTIBRIUM.logD>
3.84148

> <OPTIBRIUM.BBB category>
-

> <OPTIBRIUM.logP>
3.84148

> <OPTIBRIUM.P-gp category>
no

> <OPTIBRIUM.logS>
1.56688

> <OPTIBRIUM.HIA category>
+

> <OPTIBRIUM.PPB90 category>
high

> <OPTIBRIUM.2D6 affinity category>
high

> <OPTIBRIUM.hERG pIC50>
4.88554

> <OPTIBRIUM.2C9 pKi>
5.21785

> <OPTIBRIUM.BBB log([brain]:[blood])>
-0.045877

> <OPTIBRIUM.logS @ pH7.4>
1.56688

$$$$
Compound 437_1_1
haSeeSAR  07122111353D 1   1.00000     0.00000     0
SeeSAR 11.0.2 hazemaj
 30 32  0  0  0  0            999 V2000
   12.9519   -1.6878   20.9324 Cl  0  0  0  0  0  0  0  0  0  0  0  0
   11.8915   -0.8067   22.0577 C   0  0  0  0  0  0  0  0  0  0  0  0
   12.4490   -0.0855   23.1084 C   0  0  0  0  0  0  0  0  0  0  0  0
   10.5126   -0.8423   21.8817 C   0  0  0  0  0  0  0  0  0  0  0  0
   14.2159   -0.0469   23.3226 Cl  0  0  0  0  0  0  0  0  0  0  0  0
   11.6383    0.6095   23.9999 C   0  0  0  0  0  0  0  0  0  0  0  0
    9.7057   -0.1458   22.7748 C   0  0  0  0  0  0  0  0  0  0  0  0
   10.2580    0.5762   23.8277 C   0  0  0  0  0  0  0  0  0  0  0  0
    8.1976   -0.1822   22.5867 C   0  0  1  0  0  0  0  0  0  0  0  0
    7.8023    0.5335   21.3115 C   0  0  0  0  0  0  0  0  0  0  0  0
    7.7071   -1.5785   22.2729 C   0  0  0  0  0  0  0  0  0  0  0  0
    8.3310    1.5358   20.8546 O   0  0  0  0  0  0  0  0  0  0  0  0
    6.7397   -0.1608   20.7385 N   0  0  0  0  0  0  0  0  0  0  0  0
    6.3929   -1.2980   21.5851 C   0  0  0  0  0  0  0  0  0  0  0  0
    6.1059    0.1770   19.5382 C   0  0  0  0  0  0  0  0  0  0  0  0
    6.6045   -0.2445   18.3101 C   0  0  0  0  0  0  0  0  0  0  0  0
    4.9485    0.9478   19.5005 C   0  0  0  0  0  0  0  0  0  0  0  0
    5.9708    0.0970   17.1782 N   0  0  0  0  0  0  0  0  0  0  0  0
    4.3892    1.2362   18.3161 N   0  0  0  0  0  0  0  0  0  0  0  0
    4.8975    0.8152   17.2046 N   0  0  0  0  0  0  0  0  0  0  0  0
   10.1087   -1.3592   21.1269 H   0  0  0  0  0  0  0  0  0  0  0  0
   12.0422    1.1263   24.7548 H   0  0  0  0  0  0  0  0  0  0  0  0
    9.6630    1.0713   24.4609 H   0  0  0  0  0  0  0  0  0  0  0  0
    7.7231    0.1999   23.3797 H   0  0  0  0  0  0  0  0  0  0  0  0
    7.5743   -2.1137   23.1071 H   0  0  0  0  0  0  0  0  0  0  0  0
    8.3403   -2.0588   21.6659 H   0  0  0  0  0  0  0  0  0  0  0  0
    5.6802   -1.0579   22.2442 H   0  0  0  0  0  0  0  0  0  0  0  0
    6.0924   -2.0804   21.0396 H   0  0  0  0  0  0  0  0  0  0  0  0
    7.4344   -0.8011   18.2710 H   0  0  0  0  0  0  0  0  0  0  0  0
    4.5377    1.2836   20.3481 H   0  0  0  0  0  0  0  0  0  0  0  0
  1  2  1  0  0  0  0
  2  3  2  0  0  0  0
  2  4  1  0  0  0  0
  3  5  1  0  0  0  0
  3  6  1  0  0  0  0
  4  7  2  0  0  0  0
  6  8  2  0  0  0  0
  7  9  1  0  0  0  0
  9 10  1  0  0  0  0
  9 11  1  0  0  0  0
 10 12  2  0  0  0  0
 10 13  1  0  0  0  0
 11 14  1  0  0  0  0
 13 15  1  0  0  0  0
 15 16  2  0  0  0  0
 15 17  1  0  0  0  0
 16 18  1  0  0  0  0
 17 19  2  0  0  0  0
 18 20  2  0  0  0  0
  7  8  1  0  0  0  0
 13 14  1  0  0  0  0
 19 20  1  0  0  0  0
  4 21  1  0  0  0  0
  6 22  1  0  0  0  0
  8 23  1  0  0  0  0
  9 24  1  0  0  0  0
 11 25  1  0  0  0  0
 11 26  1  0  0  0  0
 14 27  1  0  0  0  0
 14 28  1  0  0  0  0
 16 29  1  0  0  0  0
 17 30  1  0  0  0  0
M  END
> <BIOSOLVEIT.HYDE_ESTIMATED_AFFINITY_LOWER_BOUNDARY [nM]>
31530.955016

> <BIOSOLVEIT.HYDE_ESTIMATED_AFFINITY_UPPER_BOUNDARY [nM]>
3132786.806614

> <BIOSOLVEIT.HYDE_LIGAND_EFFICIENCY range: ++, +, 0, -, -->
-

> <BIOSOLVEIT.HYDE_LIGAND_LIPOPHILIC_EFFICIENCY range: ++, +, 0, -, -->
--

> <BIOSOLVEIT.INTER_CLASH range: red, yellow, green>
red

> <BIOSOLVEIT.INTRA_CLASH range: red, yellow, green>
green

> <BIOSOLVEIT.LOGP>
2.6989

> <BIOSOLVEIT.MOLECULAR WEIGHT>
309.155

> <BIOSOLVEIT.MOLECULE_CHECKSUM>
LTE5Ljk5MzI7MC45OTk2NjI=

> <BIOSOLVEIT.TORSION_QUALITY range: red, yellow, green, not rotatable>
green

> <BIOSOLVEIT.TPSA>
58.98

> <BIOSOLVEIT.SEESAR_FAVORITE>
favorite

> <smc_score>
0.563

> <QED_score>
0.856

> <distance>
0.518

> <SimilarityPheSA_1>
0.689

> <Smiles>
O=C1C(c2ccc(Cl)c(Cl)c2)CCN1c1cnnnc1

> <Similarity_SkelSpheres>
0.683

> <Cluster No>
225.0

> <QueryID>
JAN-GHE-5a013bed-2

> <SimilarityPheSA>
0.6891

> <Postera series>
3-aminopyridine-like

> <PDB_code>
Mpro-x10466

> <Approach>
DGM_focussed_RL

> <ID>
20210618_436

> <SimilarityPheSA_2>
0.703

> <OPTIBRIUM.logD>
2.69941

> <OPTIBRIUM.BBB category>
-

> <OPTIBRIUM.logP>
2.69941

> <OPTIBRIUM.P-gp category>
no

> <OPTIBRIUM.logS>
1.25306

> <OPTIBRIUM.HIA category>
+

> <OPTIBRIUM.PPB90 category>
low

> <OPTIBRIUM.2D6 affinity category>
medium

> <OPTIBRIUM.hERG pIC50>
4.79396

> <OPTIBRIUM.2C9 pKi>
5.07322

> <OPTIBRIUM.BBB log([brain]:[blood])>
-0.293036

> <OPTIBRIUM.logS @ pH7.4>
1.25306

$$$$
Compound 437_1_2
haSeeSAR  07122111353D 1   1.00000     0.00000     0
SeeSAR 11.0.2 hazemaj
 30 32  0  0  0  0            999 V2000
   12.9520   -1.6879   20.9323 Cl  0  0  0  0  0  0  0  0  0  0  0  0
   11.8916   -0.8066   22.0577 C   0  0  0  0  0  0  0  0  0  0  0  0
   12.4491   -0.0855   23.1083 C   0  0  0  0  0  0  0  0  0  0  0  0
   10.5126   -0.8423   21.8817 C   0  0  0  0  0  0  0  0  0  0  0  0
   14.2159   -0.0468   23.3225 Cl  0  0  0  0  0  0  0  0  0  0  0  0
   11.6383    0.6096   23.9998 C   0  0  0  0  0  0  0  0  0  0  0  0
    9.7057   -0.1457   22.7749 C   0  0  0  0  0  0  0  0  0  0  0  0
   10.2580    0.5762   23.8277 C   0  0  0  0  0  0  0  0  0  0  0  0
    8.1976   -0.1822   22.5867 C   0  0  1  0  0  0  0  0  0  0  0  0
    7.8024    0.5335   21.3115 C   0  0  0  0  0  0  0  0  0  0  0  0
    7.7071   -1.5785   22.2728 C   0  0  0  0  0  0  0  0  0  0  0  0
    8.3310    1.5358   20.8547 O   0  0  0  0  0  0  0  0  0  0  0  0
    6.7398   -0.1607   20.7385 N   0  0  0  0  0  0  0  0  0  0  0  0
    6.3929   -1.2980   21.5850 C   0  0  0  0  0  0  0  0  0  0  0  0
    6.1059    0.1771   19.5381 C   0  0  0  0  0  0  0  0  0  0  0  0
    6.6046   -0.2443   18.3100 C   0  0  0  0  0  0  0  0  0  0  0  0
    4.9486    0.9479   19.5005 C   0  0  0  0  0  0  0  0  0  0  0  0
    5.9708    0.0971   17.1782 N   0  0  0  0  0  0  0  0  0  0  0  0
    4.3892    1.2362   18.3160 N   0  0  0  0  0  0  0  0  0  0  0  0
    4.8976    0.8154   17.2047 N   0  0  0  0  0  0  0  0  0  0  0  0
   10.1087   -1.3592   21.1270 H   0  0  0  0  0  0  0  0  0  0  0  0
   12.0422    1.1264   24.7546 H   0  0  0  0  0  0  0  0  0  0  0  0
    9.6631    1.0713   24.4608 H   0  0  0  0  0  0  0  0  0  0  0  0
    7.7231    0.1998   23.3797 H   0  0  0  0  0  0  0  0  0  0  0  0
    7.5743   -2.1138   23.1070 H   0  0  0  0  0  0  0  0  0  0  0  0
    8.3403   -2.0588   21.6658 H   0  0  0  0  0  0  0  0  0  0  0  0
    5.6802   -1.0580   22.2442 H   0  0  0  0  0  0  0  0  0  0  0  0
    6.0925   -2.0804   21.0395 H   0  0  0  0  0  0  0  0  0  0  0  0
    7.4344   -0.8009   18.2709 H   0  0  0  0  0  0  0  0  0  0  0  0
    4.5377    1.2837   20.3481 H   0  0  0  0  0  0  0  0  0  0  0  0
  1  2  1  0  0  0  0
  2  3  2  0  0  0  0
  2  4  1  0  0  0  0
  3  5  1  0  0  0  0
  3  6  1  0  0  0  0
  4  7  2  0  0  0  0
  6  8  2  0  0  0  0
  7  9  1  0  0  0  0
  9 10  1  0  0  0  0
  9 11  1  0  0  0  0
 10 12  2  0  0  0  0
 10 13  1  0  0  0  0
 11 14  1  0  0  0  0
 13 15  1  0  0  0  0
 15 16  2  0  0  0  0
 15 17  1  0  0  0  0
 16 18  1  0  0  0  0
 17 19  2  0  0  0  0
 18 20  2  0  0  0  0
  7  8  1  0  0  0  0
 13 14  1  0  0  0  0
 19 20  1  0  0  0  0
  4 21  1  0  0  0  0
  6 22  1  0  0  0  0
  8 23  1  0  0  0  0
  9 24  1  0  0  0  0
 11 25  1  0  0  0  0
 11 26  1  0  0  0  0
 14 27  1  0  0  0  0
 14 28  1  0  0  0  0
 16 29  1  0  0  0  0
 17 30  1  0  0  0  0
M  END
> <BIOSOLVEIT.HYDE_ESTIMATED_AFFINITY_LOWER_BOUNDARY [nM]>
31667.663847

> <BIOSOLVEIT.HYDE_ESTIMATED_AFFINITY_UPPER_BOUNDARY [nM]>
3146369.637262

> <BIOSOLVEIT.HYDE_LIGAND_EFFICIENCY range: ++, +, 0, -, -->
-

> <BIOSOLVEIT.HYDE_LIGAND_LIPOPHILIC_EFFICIENCY range: ++, +, 0, -, -->
--

> <BIOSOLVEIT.INTER_CLASH range: red, yellow, green>
red

> <BIOSOLVEIT.INTRA_CLASH range: red, yellow, green>
green

> <BIOSOLVEIT.LOGP>
2.6989

> <BIOSOLVEIT.MOLECULAR WEIGHT>
309.155

> <BIOSOLVEIT.MOLECULE_CHECKSUM>
LTE5Ljk4MjU7MC45OTkxMjY=

> <BIOSOLVEIT.TORSION_QUALITY range: red, yellow, green, not rotatable>
green

> <BIOSOLVEIT.TPSA>
58.98

> <BIOSOLVEIT.SEESAR_FAVORITE>
favorite

> <smc_score>
0.563

> <QED_score>
0.856

> <distance>
0.518

> <SimilarityPheSA_1>
0.689

> <Smiles>
O=C1C(c2ccc(Cl)c(Cl)c2)CCN1c1cnnnc1

> <Similarity_SkelSpheres>
0.683

> <Cluster No>
225.0

> <QueryID>
JAN-GHE-5a013bed-2

> <SimilarityPheSA>
0.6891

> <Postera series>
3-aminopyridine-like

> <PDB_code>
Mpro-x10466

> <Approach>
DGM_focussed_RL

> <ID>
20210618_436

> <SimilarityPheSA_2>
0.703

> <OPTIBRIUM.logD>
2.69941

> <OPTIBRIUM.BBB category>
-

> <OPTIBRIUM.logP>
2.69941

> <OPTIBRIUM.P-gp category>
no

> <OPTIBRIUM.logS>
1.25306

> <OPTIBRIUM.HIA category>
+

> <OPTIBRIUM.PPB90 category>
low

> <OPTIBRIUM.2D6 affinity category>
medium

> <OPTIBRIUM.hERG pIC50>
4.79396

> <OPTIBRIUM.2C9 pKi>
5.07322

> <OPTIBRIUM.BBB log([brain]:[blood])>
-0.293036

> <OPTIBRIUM.logS @ pH7.4>
1.25306

$$$$
Compound 512_1_06
haSeeSAR  07122111353D 1   1.00000     0.00000     0
SeeSAR 11.0.2 hazemaj
 44 47  0  0  0  0            999 V2000
   10.6122    2.6923   22.0706 Cl  0  0  0  0  0  0  0  0  0  0  0  0
    9.0552    2.5211   22.9159 C   0  0  0  0  0  0  0  0  0  0  0  0
    8.7146    1.3036   23.4953 C   0  0  0  0  0  0  0  0  0  0  0  0
    8.1958    3.6120   22.9865 C   0  0  0  0  0  0  0  0  0  0  0  0
    9.5637    0.2569   23.4155 O   0  0  0  0  0  0  0  0  0  0  0  0
    7.4945    1.1833   24.1534 C   0  0  0  0  0  0  0  0  0  0  0  0
    6.9826    3.4652   23.6504 C   0  0  0  0  0  0  0  0  0  0  0  0
    9.3934   -0.7196   22.3987 C   0  0  0  0  0  0  0  0  0  0  0  0
    7.1544   -0.0434   24.7354 N   0  0  0  0  0  0  0  0  0  0  0  0
    6.6172    2.2589   24.2383 C   0  0  0  0  0  0  0  0  0  0  0  0
    5.8661    4.8472   23.7533 Cl  0  0  0  0  0  0  0  0  0  0  0  0
    8.6138   -0.1158   21.2419 C   0  0  0  0  0  0  0  0  0  0  0  0
    6.5790   -1.0430   24.1132 N   0  0  0  0  0  0  0  0  0  0  0  0
    7.3677   -0.3898   26.0313 C   0  0  0  0  0  0  0  0  0  0  0  0
    9.1173    0.7764   20.5595 O   0  0  0  0  0  0  0  0  0  0  0  0
    7.3941   -0.5492   20.9685 N   0  0  0  0  0  0  0  0  0  0  0  0
    6.3932   -2.0547   24.9288 C   0  0  0  0  0  0  0  0  0  0  0  0
    6.8990   -1.6587   26.1875 C   0  0  0  0  0  0  0  0  0  0  0  0
    8.0159    0.4678   27.1067 C   0  0  0  0  0  0  0  0  0  0  0  0
    6.6758    0.0070   19.9026 C   0  0  0  0  0  0  0  0  0  0  0  0
    5.5349    0.7845   20.0895 C   0  0  0  0  0  0  0  0  0  0  0  0
    7.1261   -0.2311   18.6081 C   0  0  0  0  0  0  0  0  0  0  0  0
    4.8683    1.3073   18.9877 C   0  0  0  0  0  0  0  0  0  0  0  0
    5.0217    1.0671   21.3521 C   0  0  0  0  0  0  0  0  0  0  0  0
    6.4685    0.2826   17.5577 N   0  0  0  0  0  0  0  0  0  0  0  0
    5.3686    1.0329   17.7188 C   0  0  0  0  0  0  0  0  0  0  0  0
    3.7302    2.0827   19.1854 C   0  0  0  0  0  0  0  0  0  0  0  0
    3.8804    1.8465   21.5112 C   0  0  0  0  0  0  0  0  0  0  0  0
    3.2685    2.3317   20.4201 N   0  0  0  0  0  0  0  0  0  0  0  0
    8.4452    4.4852   22.5678 H   0  0  0  0  0  0  0  0  0  0  0  0
    8.8904   -1.5010   22.7679 H   0  0  0  0  0  0  0  0  0  0  0  0
   10.2894   -1.0230   22.0745 H   0  0  0  0  0  0  0  0  0  0  0  0
    5.7416    2.1671   24.7126 H   0  0  0  0  0  0  0  0  0  0  0  0
    6.9851   -1.2741   21.5229 H   0  0  0  0  0  0  0  0  0  0  0  0
    5.9751   -2.9346   24.7032 H   0  0  0  0  0  0  0  0  0  0  0  0
    6.9104   -2.2026   27.0266 H   0  0  0  0  0  0  0  0  0  0  0  0
    8.0429   -0.0408   27.9674 H   0  0  0  0  0  0  0  0  0  0  0  0
    8.9474    0.7029   26.8292 H   0  0  0  0  0  0  0  0  0  0  0  0
    7.4838    1.3053   27.2310 H   0  0  0  0  0  0  0  0  0  0  0  0
    7.9436   -0.7876   18.4598 H   0  0  0  0  0  0  0  0  0  0  0  0
    5.4828    0.7026   22.1611 H   0  0  0  0  0  0  0  0  0  0  0  0
    4.9011    1.4005   16.9149 H   0  0  0  0  0  0  0  0  0  0  0  0
    3.2487    2.4604   18.3947 H   0  0  0  0  0  0  0  0  0  0  0  0
    3.5218    2.0419   22.4241 H   0  0  0  0  0  0  0  0  0  0  0  0
  1  2  1  0  0  0  0
  2  3  2  0  0  0  0
  2  4  1  0  0  0  0
  3  5  1  0  0  0  0
  3  6  1  0  0  0  0
  4  7  2  0  0  0  0
  5  8  1  0  0  0  0
  6  9  1  0  0  0  0
  6 10  2  0  0  0  0
  7 11  1  0  0  0  0
  8 12  1  0  0  0  0
  9 13  1  0  0  0  0
  9 14  1  0  0  0  0
 12 15  2  0  0  0  0
 12 16  1  0  0  0  0
 13 17  2  0  0  0  0
 14 18  2  0  0  0  0
 14 19  1  0  0  0  0
 16 20  1  0  0  0  0
 20 21  1  0  0  0  0
 20 22  2  0  0  0  0
 21 23  1  0  0  0  0
 21 24  2  0  0  0  0
 22 25  1  0  0  0  0
 23 26  1  0  0  0  0
 23 27  2  0  0  0  0
 24 28  1  0  0  0  0
 27 29  1  0  0  0  0
  7 10  1  0  0  0  0
 17 18  1  0  0  0  0
 25 26  2  0  0  0  0
 28 29  2  0  0  0  0
  4 30  1  0  0  0  0
  8 31  1  0  0  0  0
  8 32  1  0  0  0  0
 10 33  1  0  0  0  0
 16 34  1  0  0  0  0
 17 35  1  0  0  0  0
 18 36  1  0  0  0  0
 19 37  1  0  0  0  0
 19 38  1  0  0  0  0
 19 39  1  0  0  0  0
 22 40  1  0  0  0  0
 24 41  1  0  0  0  0
 26 42  1  0  0  0  0
 27 43  1  0  0  0  0
 28 44  1  0  0  0  0
M  END
> <BIOSOLVEIT.HYDE_ESTIMATED_AFFINITY_LOWER_BOUNDARY [nM]>
32606.012230

> <BIOSOLVEIT.HYDE_ESTIMATED_AFFINITY_UPPER_BOUNDARY [nM]>
3239600.097038

> <BIOSOLVEIT.HYDE_LIGAND_EFFICIENCY range: ++, +, 0, -, -->
--

> <BIOSOLVEIT.HYDE_LIGAND_LIPOPHILIC_EFFICIENCY range: ++, +, 0, -, -->
--

> <BIOSOLVEIT.INTER_CLASH range: red, yellow, green>
green

> <BIOSOLVEIT.INTRA_CLASH range: red, yellow, green>
yellow

> <BIOSOLVEIT.LOGP>
4.44822

> <BIOSOLVEIT.MOLECULAR WEIGHT>
428.278

> <BIOSOLVEIT.MOLECULE_CHECKSUM>
LTE5LjkxMDE7MC42ODY1NTY=

> <BIOSOLVEIT.TORSION_QUALITY range: red, yellow, green, not rotatable>
red

> <BIOSOLVEIT.TPSA>
81.93

> <BIOSOLVEIT.SEESAR_FAVORITE>
favorite

> <smc_score>
0.563

> <QED_score>
0.508

> <distance>
0.508

> <SimilarityPheSA_1>
0.639

> <Smiles>
Cc1ccnn1-c1cc(Cl)cc(Cl)c1OCC(=O)Nc1cncc2cnccc12

> <Similarity_SkelSpheres>
0.764

> <Cluster No>
273.0

> <QueryID>
MAT-POS-8a69d52e-7

> <SimilarityPheSA>
0.6385

> <Postera series>
3-aminopyridine-like

> <PDB_code>
Mpro-x12073

> <Approach>
DGM_focussed_RL

> <ID>
20210618_511

> <SimilarityPheSA_2>
0.785

> <OPTIBRIUM.logD>
3.5416

> <OPTIBRIUM.BBB category>
-

> <OPTIBRIUM.logP>
3.5416

> <OPTIBRIUM.P-gp category>
no

> <OPTIBRIUM.logS>
-0.166

> <OPTIBRIUM.HIA category>
+

> <OPTIBRIUM.PPB90 category>
high

> <OPTIBRIUM.2D6 affinity category>
medium

> <OPTIBRIUM.hERG pIC50>
4.74146

> <OPTIBRIUM.2C9 pKi>
6.00048

> <OPTIBRIUM.BBB log([brain]:[blood])>
-0.533243

> <OPTIBRIUM.logS @ pH7.4>
-0.166

$$$$
Compound 539_1_04
haSeeSAR  07122111353D 1   1.00000     0.00000     0
SeeSAR 11.0.2 hazemaj
 38 41  0  0  0  0            999 V2000
    9.8649    2.4987   22.6613 Cl  0  0  0  0  0  0  0  0  0  0  0  0
   10.5185    0.8424   22.7030 C   0  0  0  0  0  0  0  0  0  0  0  0
   11.8912    0.6868   22.8512 C   0  0  0  0  0  0  0  0  0  0  0  0
    9.7134   -0.2887   22.5881 C   0  0  0  0  0  0  0  0  0  0  0  0
   12.9348    2.1200   23.0143 Cl  0  0  0  0  0  0  0  0  0  0  0  0
   12.4399   -0.5901   22.8721 C   0  0  0  0  0  0  0  0  0  0  0  0
   10.2454   -1.5593   22.6473 C   0  0  0  0  0  0  0  0  0  0  0  0
    8.2205   -0.4445   22.3763 C   0  0  1  0  0  0  0  0  0  0  0  0
   11.6232   -1.7103   22.7709 C   0  0  0  0  0  0  0  0  0  0  0  0
    9.2687   -2.4822   22.5934 O   0  0  0  0  0  0  0  0  0  0  0  0
    7.6846    0.3728   21.2124 C   0  0  0  0  0  0  0  0  0  0  0  0
    8.1216   -1.9063   21.9972 C   0  0  0  0  0  0  0  0  0  0  0  0
    8.4091    1.1962   20.6532 O   0  0  0  0  0  0  0  0  0  0  0  0
    6.4395    0.1995   20.8002 N   0  0  0  0  0  0  0  0  0  0  0  0
    6.1110    0.4117   19.4551 C   0  0  0  0  0  0  0  0  0  0  0  0
    5.0946    1.1833   18.9864 N   0  0  0  0  0  0  0  0  0  0  0  0
    6.7572   -0.1249   18.3839 C   0  0  0  0  0  0  0  0  0  0  0  0
    5.1190    1.1172   17.6251 C   0  0  0  0  0  0  0  0  0  0  0  0
    4.1396    1.9516   19.7977 C   0  0  0  0  0  0  0  0  0  0  0  0
    6.1145    0.3334   17.2729 N   0  0  0  0  0  0  0  0  0  0  0  0
    4.8995    2.8211   20.7871 C   0  0  0  0  0  0  0  0  0  0  0  0
    4.5421    2.4649   22.2005 C   0  0  0  0  0  0  0  0  0  0  0  0
    3.9910    3.7163   21.5796 C   0  0  0  0  0  0  0  0  0  0  0  0
   13.4295   -0.7036   22.9605 H   0  0  0  0  0  0  0  0  0  0  0  0
    7.7136   -0.2532   23.2168 H   0  0  0  0  0  0  0  0  0  0  0  0
   12.0261   -2.6253   22.7869 H   0  0  0  0  0  0  0  0  0  0  0  0
    8.1403   -2.0198   21.0039 H   0  0  0  0  0  0  0  0  0  0  0  0
    7.2855   -2.3146   22.3636 H   0  0  0  0  0  0  0  0  0  0  0  0
    5.7328   -0.0831   21.4488 H   0  0  0  0  0  0  0  0  0  0  0  0
    7.5486   -0.7358   18.4076 H   0  0  0  0  0  0  0  0  0  0  0  0
    4.4900    1.5833   17.0030 H   0  0  0  0  0  0  0  0  0  0  0  0
    3.5436    1.3221   20.2963 H   0  0  0  0  0  0  0  0  0  0  0  0
    3.5861    2.5320   19.2003 H   0  0  0  0  0  0  0  0  0  0  0  0
    5.8281    3.1227   20.5712 H   0  0  0  0  0  0  0  0  0  0  0  0
    5.2324    2.5266   22.9215 H   0  0  0  0  0  0  0  0  0  0  0  0
    3.9378    1.6893   22.3832 H   0  0  0  0  0  0  0  0  0  0  0  0
    3.0197    3.7740   21.3485 H   0  0  0  0  0  0  0  0  0  0  0  0
    4.3143    4.6113   21.8868 H   0  0  0  0  0  0  0  0  0  0  0  0
  1  2  1  0  0  0  0
  2  3  2  0  0  0  0
  2  4  1  0  0  0  0
  3  5  1  0  0  0  0
  3  6  1  0  0  0  0
  4  7  2  0  0  0  0
  4  8  1  0  0  0  0
  6  9  2  0  0  0  0
  7 10  1  0  0  0  0
  8 11  1  0  0  0  0
  8 12  1  0  0  0  0
 11 13  2  0  0  0  0
 11 14  1  0  0  0  0
 14 15  1  0  0  0  0
 15 16  1  0  0  0  0
 15 17  2  0  0  0  0
 16 18  1  0  0  0  0
 16 19  1  0  0  0  0
 17 20  1  0  0  0  0
 19 21  1  0  0  0  0
 21 22  1  0  0  0  0
 21 23  1  0  0  0  0
  7  9  1  0  0  0  0
 10 12  1  0  0  0  0
 18 20  2  0  0  0  0
 22 23  1  0  0  0  0
  6 24  1  0  0  0  0
  8 25  1  0  0  0  0
  9 26  1  0  0  0  0
 12 27  1  0  0  0  0
 12 28  1  0  0  0  0
 14 29  1  0  0  0  0
 17 30  1  0  0  0  0
 18 31  1  0  0  0  0
 19 32  1  0  0  0  0
 19 33  1  0  0  0  0
 21 34  1  0  0  0  0
 22 35  1  0  0  0  0
 22 36  1  0  0  0  0
 23 37  1  0  0  0  0
 23 38  1  0  0  0  0
M  END
> <BIOSOLVEIT.HYDE_ESTIMATED_AFFINITY_LOWER_BOUNDARY [nM]>
32774.200496

> <BIOSOLVEIT.HYDE_ESTIMATED_AFFINITY_UPPER_BOUNDARY [nM]>
3256310.595642

> <BIOSOLVEIT.HYDE_LIGAND_EFFICIENCY range: ++, +, 0, -, -->
-

> <BIOSOLVEIT.HYDE_LIGAND_LIPOPHILIC_EFFICIENCY range: ++, +, 0, -, -->
--

> <BIOSOLVEIT.INTER_CLASH range: red, yellow, green>
green

> <BIOSOLVEIT.INTRA_CLASH range: red, yellow, green>
yellow

> <BIOSOLVEIT.LOGP>
3.7146

> <BIOSOLVEIT.MOLECULAR WEIGHT>
352.22

> <BIOSOLVEIT.MOLECULE_CHECKSUM>
LTE5Ljg5NzQ7MC44NjUxMDQ=

> <BIOSOLVEIT.TORSION_QUALITY range: red, yellow, green, not rotatable>
red

> <BIOSOLVEIT.TPSA>
56.15

> <BIOSOLVEIT.SEESAR_FAVORITE>
favorite

> <smc_score>
0.688

> <QED_score>
0.913

> <distance>
0.622

> <SimilarityPheSA_1>
0.726

> <Smiles>
O=C(Nc1cncn1CC1CC1)C1COc2ccc(Cl)c(Cl)c21

> <Similarity_SkelSpheres>
0.607

> <Cluster No>
288.0

> <QueryID>
JAG-UCB-a3ef7265-20

> <SimilarityPheSA>
0.7258

> <Postera series>
3-aminopyridine-like

> <PDB_code>
Mpro-x10324

> <Approach>
DGM_focussed_RL

> <ID>
20210618_538

> <SimilarityPheSA_2>
0.841

> <OPTIBRIUM.logD>
3.84148

> <OPTIBRIUM.BBB category>
-

> <OPTIBRIUM.logP>
3.84148

> <OPTIBRIUM.P-gp category>
no

> <OPTIBRIUM.logS>
1.56688

> <OPTIBRIUM.HIA category>
+

> <OPTIBRIUM.PPB90 category>
high

> <OPTIBRIUM.2D6 affinity category>
high

> <OPTIBRIUM.hERG pIC50>
4.88554

> <OPTIBRIUM.2C9 pKi>
5.21785

> <OPTIBRIUM.BBB log([brain]:[blood])>
-0.045877

> <OPTIBRIUM.logS @ pH7.4>
1.56688

$$$$
Compound 428_1_1
haSeeSAR  07122111353D 1   1.00000     0.00000     0
SeeSAR 11.0.2 hazemaj
 48 52  0  0  0  0            999 V2000
   10.0205   -4.2351   25.6568 Cl  0  0  0  0  0  0  0  0  0  0  0  0
    8.9108   -3.0056   25.0041 C   0  0  0  0  0  0  0  0  0  0  0  0
    7.6828   -2.7951   25.6205 C   0  0  0  0  0  0  0  0  0  0  0  0
    9.2382   -2.2614   23.8810 C   0  0  0  0  0  0  0  0  0  0  0  0
    7.2019   -3.7369   27.0518 Cl  0  0  0  0  0  0  0  0  0  0  0  0
    6.8182   -1.8315   25.1092 C   0  0  0  0  0  0  0  0  0  0  0  0
    8.4183   -1.3008   23.3508 C   0  0  0  0  0  0  0  0  0  0  0  0
   10.4807   -2.3331   23.0097 C   0  0  0  0  0  0  0  0  0  0  0  0
    7.1917   -1.0976   23.9888 C   0  0  0  0  0  0  0  0  0  0  0  0
    9.0193   -0.7170   22.2425 N   0  0  0  0  0  0  0  0  0  0  0  0
   10.4503   -0.9904   22.3125 C   0  0  0  0  0  0  0  0  0  0  0  0
    6.3106   -0.1745   23.5452 O   0  0  0  0  0  0  0  0  0  0  0  0
    8.3830   -0.0086   21.2120 C   0  0  0  0  0  0  0  0  0  0  0  0
    6.2241    1.0899   24.1856 C   0  0  0  0  0  0  0  0  0  0  0  0
    8.8958    0.9752   20.7547 O   0  0  0  0  0  0  0  0  0  0  0  0
    7.1763   -0.4400   20.7278 N   0  0  0  0  0  0  0  0  0  0  0  0
    6.5409    0.2673   19.6987 C   0  0  0  0  0  0  0  0  0  0  0  0
    5.3738    1.0016   19.8993 C   0  0  0  0  0  0  0  0  0  0  0  0
    7.1038    0.2314   18.4271 C   0  0  0  0  0  0  0  0  0  0  0  0
    4.7965    1.6801   18.8305 C   0  0  0  0  0  0  0  0  0  0  0  0
    4.7539    1.0856   21.1424 C   0  0  0  0  0  0  0  0  0  0  0  0
    6.5316    0.8920   17.4099 N   0  0  0  0  0  0  0  0  0  0  0  0
    5.4083    1.6036   17.5836 C   0  0  0  0  0  0  0  0  0  0  0  0
    3.6322    2.4203   19.0076 C   0  0  0  0  0  0  0  0  0  0  0  0
    3.5901    1.8222   21.3261 C   0  0  0  0  0  0  0  0  0  0  0  0
    3.0195    2.4979   20.2539 C   0  0  0  0  0  0  0  0  0  0  0  0
    2.9626    1.8737   22.7094 C   0  0  0  0  0  0  0  0  0  0  0  0
    1.4656    1.9306   22.6185 C   0  0  0  0  0  0  0  0  0  0  0  0
    2.2439    3.1672   22.9653 C   0  0  0  0  0  0  0  0  0  0  0  0
    5.9334   -1.6680   25.5454 H   0  0  0  0  0  0  0  0  0  0  0  0
   10.4219   -3.0853   22.3534 H   0  0  0  0  0  0  0  0  0  0  0  0
   11.3074   -2.4373   23.5628 H   0  0  0  0  0  0  0  0  0  0  0  0
   10.8547   -1.0458   21.3995 H   0  0  0  0  0  0  0  0  0  0  0  0
   10.9278   -0.2927   22.8467 H   0  0  0  0  0  0  0  0  0  0  0  0
    5.5269    1.6458   23.7329 H   0  0  0  0  0  0  0  0  0  0  0  0
    5.9762    0.9611   25.1457 H   0  0  0  0  0  0  0  0  0  0  0  0
    7.1085    1.5533   24.1290 H   0  0  0  0  0  0  0  0  0  0  0  0
    6.7489   -1.2599   21.1088 H   0  0  0  0  0  0  0  0  0  0  0  0
    7.9418   -0.2911   18.2704 H   0  0  0  0  0  0  0  0  0  0  0  0
    5.1554    0.6046   21.9217 H   0  0  0  0  0  0  0  0  0  0  0  0
    5.0050    2.0860   16.8060 H   0  0  0  0  0  0  0  0  0  0  0  0
    3.2307    2.9029   18.2292 H   0  0  0  0  0  0  0  0  0  0  0  0
    2.1823    3.0308   20.3765 H   0  0  0  0  0  0  0  0  0  0  0  0
    3.3953    1.3879   23.4688 H   0  0  0  0  0  0  0  0  0  0  0  0
    0.9050    1.4812   23.3140 H   0  0  0  0  0  0  0  0  0  0  0  0
    1.0155    1.8562   21.7286 H   0  0  0  0  0  0  0  0  0  0  0  0
    2.3124    3.9162   22.3064 H   0  0  0  0  0  0  0  0  0  0  0  0
    2.2020    3.5411   23.8918 H   0  0  0  0  0  0  0  0  0  0  0  0
  1  2  1  0  0  0  0
  2  3  2  0  0  0  0
  2  4  1  0  0  0  0
  3  5  1  0  0  0  0
  3  6  1  0  0  0  0
  4  7  2  0  0  0  0
  4  8  1  0  0  0  0
  6  9  2  0  0  0  0
  7 10  1  0  0  0  0
  8 11  1  0  0  0  0
  9 12  1  0  0  0  0
 10 13  1  0  0  0  0
 12 14  1  0  0  0  0
 13 15  2  0  0  0  0
 13 16  1  0  0  0  0
 16 17  1  0  0  0  0
 17 18  1  0  0  0  0
 17 19  2  0  0  0  0
 18 20  1  0  0  0  0
 18 21  2  0  0  0  0
 19 22  1  0  0  0  0
 20 23  1  0  0  0  0
 20 24  2  0  0  0  0
 21 25  1  0  0  0  0
 24 26  1  0  0  0  0
 25 27  1  0  0  0  0
 27 28  1  0  0  0  0
 27 29  1  0  0  0  0
  7  9  1  0  0  0  0
 10 11  1  0  0  0  0
 22 23  2  0  0  0  0
 25 26  2  0  0  0  0
 28 29  1  0  0  0  0
  6 30  1  0  0  0  0
  8 31  1  0  0  0  0
  8 32  1  0  0  0  0
 11 33  1  0  0  0  0
 11 34  1  0  0  0  0
 14 35  1  0  0  0  0
 14 36  1  0  0  0  0
 14 37  1  0  0  0  0
 16 38  1  0  0  0  0
 19 39  1  0  0  0  0
 21 40  1  0  0  0  0
 23 41  1  0  0  0  0
 24 42  1  0  0  0  0
 26 43  1  0  0  0  0
 27 44  1  0  0  0  0
 28 45  1  0  0  0  0
 28 46  1  0  0  0  0
 29 47  1  0  0  0  0
 29 48  1  0  0  0  0
M  END
> <BIOSOLVEIT.HYDE_ESTIMATED_AFFINITY_LOWER_BOUNDARY [nM]>
34298.618222

> <BIOSOLVEIT.HYDE_ESTIMATED_AFFINITY_UPPER_BOUNDARY [nM]>
3407770.509875

> <BIOSOLVEIT.HYDE_LIGAND_EFFICIENCY range: ++, +, 0, -, -->
--

> <BIOSOLVEIT.HYDE_LIGAND_LIPOPHILIC_EFFICIENCY range: ++, +, 0, -, -->
--

> <BIOSOLVEIT.INTER_CLASH range: red, yellow, green>
green

> <BIOSOLVEIT.INTRA_CLASH range: red, yellow, green>
green

> <BIOSOLVEIT.LOGP>
6.0222

> <BIOSOLVEIT.MOLECULAR WEIGHT>
428.317

> <BIOSOLVEIT.MOLECULE_CHECKSUM>
LTE5Ljc4NDc7MC42ODIyMw==

> <BIOSOLVEIT.TORSION_QUALITY range: red, yellow, green, not rotatable>
yellow

> <BIOSOLVEIT.TPSA>
54.46

> <BIOSOLVEIT.SEESAR_FAVORITE>
favorite

> <smc_score>
0.875

> <QED_score>
0.555

> <distance>
0.614

> <SimilarityPheSA_1>
0.637

> <Smiles>
COc1cc(Cl)c(Cl)c2c1N(C(=O)Nc1cncc3ccc(C4CC4)cc13)CC2

> <Similarity_SkelSpheres>
0.682

> <Cluster No>
219.0

> <QueryID>
ALP-POS-ce760d3f-2

> <SimilarityPheSA>
0.6366

> <Postera series>
3-aminopyridine-like

> <PDB_code>
Mpro-x12659

> <Approach>
DGM_focussed_RL

> <ID>
20210618_427

> <SimilarityPheSA_2>
0.872

> <OPTIBRIUM.logD>
5.45431

> <OPTIBRIUM.BBB category>
-

> <OPTIBRIUM.logP>
5.45431

> <OPTIBRIUM.P-gp category>
yes

> <OPTIBRIUM.logS>
-0.802743

> <OPTIBRIUM.HIA category>
+

> <OPTIBRIUM.PPB90 category>
high

> <OPTIBRIUM.2D6 affinity category>
high

> <OPTIBRIUM.hERG pIC50>
6.00604

> <OPTIBRIUM.2C9 pKi>
6.15407

> <OPTIBRIUM.BBB log([brain]:[blood])>
0.075279

> <OPTIBRIUM.logS @ pH7.4>
-0.802743

$$$$
Compound 616_1_2
haSeeSAR  07122111353D 1   1.00000     0.00000     0
SeeSAR 11.0.2 hazemaj
 28 29  0  0  0  0            999 V2000
   13.9586    0.0649   22.7240 Cl  0  0  0  0  0  0  0  0  0  0  0  0
   12.1832    0.1717   22.7889 C   0  0  0  0  0  0  0  0  0  0  0  0
   11.4210   -0.9901   22.7346 C   0  0  0  0  0  0  0  0  0  0  0  0
   11.5683    1.4149   22.8927 C   0  0  0  0  0  0  0  0  0  0  0  0
   12.0189   -2.1733   22.6348 F   0  0  0  0  0  0  0  0  0  0  0  0
   10.0321   -0.9236   22.7829 C   0  0  0  0  0  0  0  0  0  0  0  0
   10.1800    1.4769   22.9421 C   0  0  0  0  0  0  0  0  0  0  0  0
    9.4118    0.3176   22.8882 C   0  0  0  0  0  0  0  0  0  0  0  0
    9.4034    3.0733   23.0754 Cl  0  0  0  0  0  0  0  0  0  0  0  0
    7.8961    0.4074   22.9424 C   0  0  0  0  0  0  0  0  0  0  0  0
    7.3238   -0.2460   21.7564 N   0  0  0  0  0  0  0  0  0  0  0  0
    7.5867    0.2269   20.5491 C   0  0  0  0  0  0  0  0  0  0  0  0
    8.3108    1.2139   20.4189 O   0  0  0  0  0  0  0  0  0  0  0  0
    6.9950   -0.4486   19.3228 C   0  0  0  0  0  0  0  0  0  0  0  0
    6.1992    0.5246   18.5639 N   0  0  0  0  0  0  0  0  0  0  0  0
    6.4687    0.9546   17.3464 N   0  0  0  0  0  0  0  0  0  0  0  0
    5.0639    1.1313   19.0079 C   0  0  0  0  0  0  0  0  0  0  0  0
    5.5346    1.8165   16.9986 C   0  0  0  0  0  0  0  0  0  0  0  0
    4.6615    1.9296   18.0439 N   0  0  0  0  0  0  0  0  0  0  0  0
   12.1159    2.2508   22.9314 H   0  0  0  0  0  0  0  0  0  0  0  0
    9.4850   -1.7597   22.7424 H   0  0  0  0  0  0  0  0  0  0  0  0
    7.6196    1.3682   22.9597 H   0  0  0  0  0  0  0  0  0  0  0  0
    7.5645   -0.0498   23.7675 H   0  0  0  0  0  0  0  0  0  0  0  0
    6.7357   -1.0478   21.8622 H   0  0  0  0  0  0  0  0  0  0  0  0
    6.4093   -1.2066   19.6098 H   0  0  0  0  0  0  0  0  0  0  0  0
    7.7333   -0.7979   18.7457 H   0  0  0  0  0  0  0  0  0  0  0  0
    4.6221    0.9958   19.8948 H   0  0  0  0  0  0  0  0  0  0  0  0
    5.4752    2.3010   16.1259 H   0  0  0  0  0  0  0  0  0  0  0  0
  1  2  1  0  0  0  0
  2  3  2  0  0  0  0
  2  4  1  0  0  0  0
  3  5  1  0  0  0  0
  3  6  1  0  0  0  0
  4  7  2  0  0  0  0
  6  8  2  0  0  0  0
  7  9  1  0  0  0  0
  8 10  1  0  0  0  0
 10 11  1  0  0  0  0
 11 12  1  0  0  0  0
 12 13  2  0  0  0  0
 12 14  1  0  0  0  0
 14 15  1  0  0  0  0
 15 16  1  0  0  0  0
 15 17  1  0  0  0  0
 16 18  2  0  0  0  0
 17 19  2  0  0  0  0
  7  8  1  0  0  0  0
 18 19  1  0  0  0  0
  4 20  1  0  0  0  0
  6 21  1  0  0  0  0
 10 22  1  0  0  0  0
 10 23  1  0  0  0  0
 11 24  1  0  0  0  0
 14 25  1  0  0  0  0
 14 26  1  0  0  0  0
 17 27  1  0  0  0  0
 18 28  1  0  0  0  0
M  END
> <BIOSOLVEIT.HYDE_ESTIMATED_AFFINITY_LOWER_BOUNDARY [nM]>
35468.629556

> <BIOSOLVEIT.HYDE_ESTIMATED_AFFINITY_UPPER_BOUNDARY [nM]>
3524018.053561

> <BIOSOLVEIT.HYDE_LIGAND_EFFICIENCY range: ++, +, 0, -, -->
-

> <BIOSOLVEIT.HYDE_LIGAND_LIPOPHILIC_EFFICIENCY range: ++, +, 0, -, -->
--

> <BIOSOLVEIT.INTER_CLASH range: red, yellow, green>
green

> <BIOSOLVEIT.INTRA_CLASH range: red, yellow, green>
yellow

> <BIOSOLVEIT.LOGP>
2.0404

> <BIOSOLVEIT.MOLECULAR WEIGHT>
303.123

> <BIOSOLVEIT.MOLECULE_CHECKSUM>
LTE5LjcwMTU7MS4wMzY5Mg==

> <BIOSOLVEIT.TORSION_QUALITY range: red, yellow, green, not rotatable>
green

> <BIOSOLVEIT.TPSA>
59.81

> <BIOSOLVEIT.SEESAR_FAVORITE>
favorite

> <smc_score>
0.688

> <QED_score>
0.879

> <distance>
0.683

> <SimilarityPheSA_1>
0.639

> <Smiles>
O=C(Cn1cncn1)NCc1cc(F)c(Cl)cc1Cl

> <Similarity_SkelSpheres>
0.565

> <Cluster No>
337.0

> <QueryID>
JAN-GHE-5a013bed-2

> <SimilarityPheSA>
0.6388

> <Postera series>
3-aminopyridine-like

> <PDB_code>
Mpro-x10466

> <Approach>
DGM_focussed_RL

> <ID>
20210618_615

> <SimilarityPheSA_2>
0.726

> <OPTIBRIUM.logD>
1.71677

> <OPTIBRIUM.BBB category>
-

> <OPTIBRIUM.logP>
1.71677

> <OPTIBRIUM.P-gp category>
no

> <OPTIBRIUM.logS>
2.73594

> <OPTIBRIUM.HIA category>
+

> <OPTIBRIUM.PPB90 category>
high

> <OPTIBRIUM.2D6 affinity category>
low

> <OPTIBRIUM.hERG pIC50>
4.48895

> <OPTIBRIUM.2C9 pKi>
4.51349

> <OPTIBRIUM.BBB log([brain]:[blood])>
-0.177741

> <OPTIBRIUM.logS @ pH7.4>
2.73594

$$$$
Compound 1630_1_1
haSeeSAR  07122111353D 1   1.00000     0.00000     0
SeeSAR 11.0.2 hazemaj
 44 46  0  0  0  0            999 V2000
    8.9722    2.3419   23.2044 Cl  0  0  0  0  0  0  0  0  0  0  0  0
   10.2681    1.1746   22.8475 C   0  0  0  0  0  0  0  0  0  0  0  0
   11.5928    1.5962   22.8112 C   0  0  0  0  0  0  0  0  0  0  0  0
    9.9651   -0.1608   22.6045 C   0  0  0  0  0  0  0  0  0  0  0  0
   11.8827    2.8734   23.0439 F   0  0  0  0  0  0  0  0  0  0  0  0
   12.6192    0.6996   22.5338 C   0  0  0  0  0  0  0  0  0  0  0  0
   10.9792   -1.0712   22.3258 C   0  0  0  0  0  0  0  0  0  0  0  0
    8.5228   -0.6387   22.6406 C   0  0  0  0  0  0  0  0  0  0  0  0
   12.2986   -0.6323   22.2927 C   0  0  0  0  0  0  0  0  0  0  0  0
    8.0792   -0.9615   21.2768 N   0  0  0  0  0  0  0  0  0  0  0  0
   13.6022   -1.7905   21.9362 Cl  0  0  0  0  0  0  0  0  0  0  0  0
    8.1648   -0.0512   20.3205 C   0  0  0  0  0  0  0  0  0  0  0  0
    8.6159    1.0660   20.5728 O   0  0  0  0  0  0  0  0  0  0  0  0
    7.7063   -0.3850   18.9103 C   0  0  0  0  0  0  0  0  0  0  0  0
    6.5329    0.5054   18.5349 C   0  0  0  0  0  0  0  0  0  0  0  0
    6.1956    0.8649   17.3186 N   0  0  0  0  0  0  0  0  0  0  0  0
    5.6165    1.0881   19.4326 C   0  0  0  0  0  0  0  0  0  0  0  0
    5.1339    1.6389   17.3380 N   0  0  0  0  0  0  0  0  0  0  0  0
    4.7609    1.7899   18.6411 C   0  0  0  0  0  0  0  0  0  0  0  0
    3.6320    2.5709   19.1076 C   0  0  0  0  0  0  0  0  0  0  0  0
    2.9153    3.1604   18.2989 O   0  0  0  0  0  0  0  0  0  0  0  0
    3.3572    2.6545   20.4776 N   0  0  0  0  0  0  0  0  0  0  0  0
    2.0999    2.1721   21.0693 C   0  0  0  0  0  0  0  0  0  0  0  0
    4.3211    3.2375   21.4192 C   0  0  0  0  0  0  0  0  0  0  0  0
    2.3627    1.8684   22.5372 C   0  0  0  0  0  0  0  0  0  0  0  0
    3.5024    3.9569   22.4842 C   0  0  0  0  0  0  0  0  0  0  0  0
    2.6754    3.0702   23.2336 O   0  0  0  0  0  0  0  0  0  0  0  0
   13.5705    1.0070   22.5081 H   0  0  0  0  0  0  0  0  0  0  0  0
   10.7619   -2.0315   22.1509 H   0  0  0  0  0  0  0  0  0  0  0  0
    7.9420    0.0826   23.0181 H   0  0  0  0  0  0  0  0  0  0  0  0
    8.4563   -1.4548   23.2146 H   0  0  0  0  0  0  0  0  0  0  0  0
    7.7130   -1.8691   21.0719 H   0  0  0  0  0  0  0  0  0  0  0  0
    7.4237   -1.3434   18.8698 H   0  0  0  0  0  0  0  0  0  0  0  0
    8.4591   -0.2322   18.2700 H   0  0  0  0  0  0  0  0  0  0  0  0
    5.5989    1.0043   20.4290 H   0  0  0  0  0  0  0  0  0  0  0  0
    1.7990    1.3426   20.5988 H   0  0  0  0  0  0  0  0  0  0  0  0
    1.3941    2.8759   20.9886 H   0  0  0  0  0  0  0  0  0  0  0  0
    4.9181    3.8852   20.9459 H   0  0  0  0  0  0  0  0  0  0  0  0
    4.8752    2.5174   21.8369 H   0  0  0  0  0  0  0  0  0  0  0  0
    3.1310    1.2326   22.6117 H   0  0  0  0  0  0  0  0  0  0  0  0
    1.5470    1.4541   22.9410 H   0  0  0  0  0  0  0  0  0  0  0  0
    2.9205    4.6356   22.0362 H   0  0  0  0  0  0  0  0  0  0  0  0
    4.1292    4.4179   23.1124 H   0  0  0  0  0  0  0  0  0  0  0  0
    6.6809    0.5874   16.4894 H   0  0  0  0  0  0  0  0  0  0  0  0
  1  2  1  0  0  0  0
  2  3  2  0  0  0  0
  2  4  1  0  0  0  0
  3  5  1  0  0  0  0
  3  6  1  0  0  0  0
  4  7  2  0  0  0  0
  4  8  1  0  0  0  0
  6  9  2  0  0  0  0
  8 10  1  0  0  0  0
  9 11  1  0  0  0  0
 10 12  1  0  0  0  0
 12 13  2  0  0  0  0
 12 14  1  0  0  0  0
 14 15  1  0  0  0  0
 15 16  1  0  0  0  0
 15 17  2  0  0  0  0
 16 18  1  0  0  0  0
 17 19  1  0  0  0  0
 19 20  1  0  0  0  0
 20 21  2  0  0  0  0
 20 22  1  0  0  0  0
 22 23  1  0  0  0  0
 22 24  1  0  0  0  0
 23 25  1  0  0  0  0
 24 26  1  0  0  0  0
 25 27  1  0  0  0  0
  7  9  1  0  0  0  0
 18 19  2  0  0  0  0
 26 27  1  0  0  0  0
  6 28  1  0  0  0  0
  7 29  1  0  0  0  0
  8 30  1  0  0  0  0
  8 31  1  0  0  0  0
 10 32  1  0  0  0  0
 14 33  1  0  0  0  0
 14 34  1  0  0  0  0
 17 35  1  0  0  0  0
 16 44  1  0  0  0  0
 23 36  1  0  0  0  0
 23 37  1  0  0  0  0
 24 38  1  0  0  0  0
 24 39  1  0  0  0  0
 25 40  1  0  0  0  0
 25 41  1  0  0  0  0
 26 42  1  0  0  0  0
 26 43  1  0  0  0  0
M  END
> <BIOSOLVEIT.HYDE_ESTIMATED_AFFINITY_LOWER_BOUNDARY [nM]>
35977.975406

> <BIOSOLVEIT.HYDE_ESTIMATED_AFFINITY_UPPER_BOUNDARY [nM]>
3574624.575196

> <BIOSOLVEIT.HYDE_LIGAND_EFFICIENCY range: ++, +, 0, -, -->
--

> <BIOSOLVEIT.HYDE_LIGAND_LIPOPHILIC_EFFICIENCY range: ++, +, 0, -, -->
--

> <BIOSOLVEIT.INTER_CLASH range: red, yellow, green>
yellow

> <BIOSOLVEIT.INTRA_CLASH range: red, yellow, green>
red

> <BIOSOLVEIT.LOGP>
2.1869

> <BIOSOLVEIT.MOLECULAR WEIGHT>
415.25

> <BIOSOLVEIT.MOLECULE_CHECKSUM>
LTE5LjY2NjI7MC43MjgzNzc=

> <BIOSOLVEIT.TORSION_QUALITY range: red, yellow, green, not rotatable>
red

> <BIOSOLVEIT.TPSA>
87.32

> <BIOSOLVEIT.SEESAR_FAVORITE>
favorite

> <smc_score>
0.875

> <QED_score>
0.734

> <distance>
0.69

> <SimilarityPheSA_1>
0.648

> <Smiles>
O=C(Cc1cc(C(=O)N2CCOCC2)[nH]n1)NCc1cc(Cl)cc(F)c1Cl

> <Similarity_SkelSpheres>
0.585

> <Cluster No>
420.0

> <QueryID>
JAN-GHE-5a013bed-2

> <SimilarityPheSA>
0.6479

> <Postera series>
3-aminopyridine-like

> <PDB_code>
Mpro-x10466

> <Approach>
DGM_exploratory_RL

> <ID>
20210628_900

> <SimilarityPheSA_2>
0.668

> <OPTIBRIUM.logD>
1.74055

> <OPTIBRIUM.BBB category>
-

> <OPTIBRIUM.logP>
1.74055

> <OPTIBRIUM.P-gp category>
yes

> <OPTIBRIUM.logS>
2.10043

> <OPTIBRIUM.HIA category>
+

> <OPTIBRIUM.PPB90 category>
high

> <OPTIBRIUM.2D6 affinity category>
low

> <OPTIBRIUM.hERG pIC50>
4.01869

> <OPTIBRIUM.2C9 pKi>
5.02489

> <OPTIBRIUM.BBB log([brain]:[blood])>
-0.64827

> <OPTIBRIUM.logS @ pH7.4>
2.10043

$$$$
Compound 1_1_03
haSeeSAR  07122111353D 1   1.00000     0.00000     0
SeeSAR 11.0.2 hazemaj
 46 49  0  0  0  0            999 V2000
    6.6027    7.6439   21.1943 Cl  0  0  0  0  0  0  0  0  0  0  0  0
    6.5380    6.1217   22.1140 C   0  0  0  0  0  0  0  0  0  0  0  0
    5.3336    5.7214   22.6849 C   0  0  0  0  0  0  0  0  0  0  0  0
    7.6710    5.3333   22.2691 C   0  0  0  0  0  0  0  0  0  0  0  0
    3.8724    6.7214   22.4993 Cl  0  0  0  0  0  0  0  0  0  0  0  0
    5.2413    4.5351   23.4077 C   0  0  0  0  0  0  0  0  0  0  0  0
    7.5703    4.1517   22.9912 C   0  0  0  0  0  0  0  0  0  0  0  0
    6.3772    3.7528   23.5346 C   0  0  0  0  0  0  0  0  0  0  0  0
    8.6516    3.1371   23.3036 C   0  0  2  0  0  0  0  0  0  0  0  0
    6.6033    2.4195   24.2176 C   0  0  0  0  0  0  0  0  0  0  0  0
    8.8612    2.1745   22.1448 C   0  0  0  0  0  0  0  0  0  0  0  0
    8.0876    2.4476   24.5270 C   0  0  0  0  0  0  0  0  0  0  0  0
    8.6357    2.5412   20.9916 O   0  0  0  0  0  0  0  0  0  0  0  0
    9.2860    0.9432   22.3763 N   0  0  0  0  0  0  0  0  0  0  0  0
    9.4887    0.0128   21.2564 C   0  0  0  0  0  0  0  0  0  0  0  0
    8.2233   -0.8007   21.0382 C   0  0  0  0  0  0  0  0  0  0  0  0
    7.3245   -0.0833   20.0406 C   0  0  0  0  0  0  0  0  0  0  0  0
    6.0793    0.5008   20.3300 C   0  0  0  0  0  0  0  0  0  0  0  0
    7.8455   -0.0443   18.7602 C   0  0  0  0  0  0  0  0  0  0  0  0
    5.4476    0.5246   21.5881 C   0  0  0  0  0  0  0  0  0  0  0  0
    5.3990    1.1125   19.2787 C   0  0  0  0  0  0  0  0  0  0  0  0
    7.1497    0.5589   17.7866 N   0  0  0  0  0  0  0  0  0  0  0  0
    6.0192   -0.0825   22.8631 C   0  0  0  0  0  0  0  0  0  0  0  0
    4.2104    1.1222   21.8039 C   0  0  0  0  0  0  0  0  0  0  0  0
    5.9564    1.1317   18.0052 C   0  0  0  0  0  0  0  0  0  0  0  0
    4.1609    1.7165   19.4710 C   0  0  0  0  0  0  0  0  0  0  0  0
    6.4657   -0.5568   23.8590 C   0  0  0  0  0  0  0  0  0  0  0  0
    3.5663    1.7220   20.7275 C   0  0  0  0  0  0  0  0  0  0  0  0
    8.5436    5.6118   21.8680 H   0  0  0  0  0  0  0  0  0  0  0  0
    4.3767    4.2548   23.8247 H   0  0  0  0  0  0  0  0  0  0  0  0
    9.5083    3.6007   23.5299 H   0  0  0  0  0  0  0  0  0  0  0  0
    6.3767    1.6597   23.6083 H   0  0  0  0  0  0  0  0  0  0  0  0
    6.0621    2.3477   25.0554 H   0  0  0  0  0  0  0  0  0  0  0  0
    8.2756    2.9710   25.3580 H   0  0  0  0  0  0  0  0  0  0  0  0
    8.4557    1.5230   24.6250 H   0  0  0  0  0  0  0  0  0  0  0  0
    9.4693    0.6453   23.3132 H   0  0  0  0  0  0  0  0  0  0  0  0
   10.2482   -0.6025   21.4674 H   0  0  0  0  0  0  0  0  0  0  0  0
    9.6994    0.5303   20.4271 H   0  0  0  0  0  0  0  0  0  0  0  0
    7.7399   -0.9049   21.9074 H   0  0  0  0  0  0  0  0  0  0  0  0
    8.4646   -1.7029   20.6806 H   0  0  0  0  0  0  0  0  0  0  0  0
    8.7323   -0.4619   18.5628 H   0  0  0  0  0  0  0  0  0  0  0  0
    3.7936    1.1206   22.7129 H   0  0  0  0  0  0  0  0  0  0  0  0
    5.4680    1.5724   17.2521 H   0  0  0  0  0  0  0  0  0  0  0  0
    3.6950    2.1499   18.6995 H   0  0  0  0  0  0  0  0  0  0  0  0
    6.8408   -0.9553   24.6959 H   0  0  0  0  0  0  0  0  0  0  0  0
    2.6754    2.1573   20.8573 H   0  0  0  0  0  0  0  0  0  0  0  0
  1  2  1  0  0  0  0
  2  3  2  0  0  0  0
  2  4  1  0  0  0  0
  3  5  1  0  0  0  0
  3  6  1  0  0  0  0
  4  7  2  0  0  0  0
  6  8  2  0  0  0  0
  7  9  1  0  0  0  0
  8 10  1  0  0  0  0
  9 11  1  0  0  0  0
  9 12  1  0  0  0  0
 11 13  2  0  0  0  0
 11 14  1  0  0  0  0
 14 15  1  0  0  0  0
 15 16  1  0  0  0  0
 16 17  1  0  0  0  0
 17 18  1  0  0  0  0
 17 19  2  0  0  0  0
 18 20  2  0  0  0  0
 18 21  1  0  0  0  0
 19 22  1  0  0  0  0
 20 23  1  0  0  0  0
 20 24  1  0  0  0  0
 21 25  1  0  0  0  0
 21 26  2  0  0  0  0
 23 27  3  0  0  0  0
 24 28  2  0  0  0  0
  7  8  1  0  0  0  0
 10 12  1  0  0  0  0
 22 25  2  0  0  0  0
 26 28  1  0  0  0  0
  4 29  1  0  0  0  0
  6 30  1  0  0  0  0
  9 31  1  0  0  0  0
 10 32  1  0  0  0  0
 10 33  1  0  0  0  0
 12 34  1  0  0  0  0
 12 35  1  0  0  0  0
 14 36  1  0  0  0  0
 15 37  1  0  0  0  0
 15 38  1  0  0  0  0
 16 39  1  0  0  0  0
 16 40  1  0  0  0  0
 19 41  1  0  0  0  0
 24 42  1  0  0  0  0
 25 43  1  0  0  0  0
 26 44  1  0  0  0  0
 27 45  1  0  0  0  0
 28 46  1  0  0  0  0
M  END
> <BIOSOLVEIT.HYDE_ESTIMATED_AFFINITY_LOWER_BOUNDARY [nM]>
36683.758976

> <BIOSOLVEIT.HYDE_ESTIMATED_AFFINITY_UPPER_BOUNDARY [nM]>
3644748.345856

> <BIOSOLVEIT.HYDE_LIGAND_EFFICIENCY range: ++, +, 0, -, -->
--

> <BIOSOLVEIT.HYDE_LIGAND_LIPOPHILIC_EFFICIENCY range: ++, +, 0, -, -->
--

> <BIOSOLVEIT.INTER_CLASH range: red, yellow, green>
green

> <BIOSOLVEIT.INTRA_CLASH range: red, yellow, green>
yellow

> <BIOSOLVEIT.LOGP>
4.9116

> <BIOSOLVEIT.MOLECULAR WEIGHT>
409.314

> <BIOSOLVEIT.MOLECULE_CHECKSUM>
LTE5LjYxODswLjcwMDY0NA==

> <BIOSOLVEIT.TORSION_QUALITY range: red, yellow, green, not rotatable>
green

> <BIOSOLVEIT.TPSA>
41.99

> <BIOSOLVEIT.SEESAR_FAVORITE>
favorite

> <smc_score>
0.688

> <QED_score>
0.622

> <distance>
0.641

> <SimilarityPheSA_1>
0.708

> <Smiles>
C#Cc1cccc2cncc(CCNC(=O)C3CCc4cc(Cl)c(Cl)cc43)c12

> <Similarity_SkelSpheres>
0.725

> <Cluster No>
1.0

> <QueryID>
ADA-UCB-6c2cb422-1

> <SimilarityPheSA>
0.7084

> <Postera series>
3-aminopyridine-like

> <PDB_code>
Mpro-x10959

> <Approach>
DGM_focussed_RL

> <ID>
20210618_0

> <SimilarityPheSA_2>
0.723

> <OPTIBRIUM.logD>
4.83063

> <OPTIBRIUM.BBB category>
+

> <OPTIBRIUM.logP>
4.83063

> <OPTIBRIUM.P-gp category>
no

> <OPTIBRIUM.logS>
-0.41578

> <OPTIBRIUM.HIA category>
+

> <OPTIBRIUM.PPB90 category>
high

> <OPTIBRIUM.2D6 affinity category>
high

> <OPTIBRIUM.hERG pIC50>
5.10131

> <OPTIBRIUM.2C9 pKi>
5.78721

> <OPTIBRIUM.BBB log([brain]:[blood])>
-0.22871

> <OPTIBRIUM.logS @ pH7.4>
-0.41578

$$$$
Compound 567_1_2
haSeeSAR  07122111353D 1   1.00000     0.00000     0
SeeSAR 11.0.2 hazemaj
 34 36  0  0  0  0            999 V2000
    9.8308   -2.6239   24.1954 Cl  0  0  0  0  0  0  0  0  0  0  0  0
    9.2370   -1.4945   25.4368 C   0  0  0  0  0  0  0  0  0  0  0  0
    9.0836   -0.1448   25.1355 C   0  0  0  0  0  0  0  0  0  0  0  0
    8.9313   -1.9745   26.7055 C   0  0  0  0  0  0  0  0  0  0  0  0
    8.6196    0.7362   26.1073 C   0  0  0  0  0  0  0  0  0  0  0  0
    9.4222    0.3669   23.7460 C   0  0  0  0  0  0  0  0  0  0  0  0
    8.4691   -1.0837   27.6685 C   0  0  0  0  0  0  0  0  0  0  0  0
    8.3101    0.2679   27.3802 C   0  0  0  0  0  0  0  0  0  0  0  0
    8.2624    0.1897   22.8632 N   0  0  0  0  0  0  0  0  0  0  0  0
    8.1291   -1.5951   29.0589 C   0  0  0  0  0  0  0  0  0  0  0  0
    8.1153    0.7350   21.5897 C   0  0  0  0  0  0  0  0  0  0  0  0
    7.0571   -0.5706   23.2264 C   0  0  0  0  0  0  0  0  0  0  0  0
    7.8742   -1.9787   30.1017 N   0  0  0  0  0  0  0  0  0  0  0  0
    8.9183    1.4869   21.0452 O   0  0  0  0  0  0  0  0  0  0  0  0
    6.9211    0.2923   21.0320 N   0  0  0  0  0  0  0  0  0  0  0  0
    6.2735   -0.6667   21.9289 C   0  0  0  0  0  0  0  0  0  0  0  0
    6.4206    0.6825   19.7849 C   0  0  0  0  0  0  0  0  0  0  0  0
    5.2681    1.4573   19.6999 C   0  0  0  0  0  0  0  0  0  0  0  0
    7.0564    0.3084   18.6061 C   0  0  0  0  0  0  0  0  0  0  0  0
    4.8070    1.8188   18.4934 N   0  0  0  0  0  0  0  0  0  0  0  0
    6.5447    0.7024   17.4304 N   0  0  0  0  0  0  0  0  0  0  0  0
    5.4328    1.4498   17.3662 C   0  0  0  0  0  0  0  0  0  0  0  0
    9.0421   -2.9445   26.9220 H   0  0  0  0  0  0  0  0  0  0  0  0
    8.5085    1.7062   25.8907 H   0  0  0  0  0  0  0  0  0  0  0  0
   10.1996   -0.1462   23.3822 H   0  0  0  0  0  0  0  0  0  0  0  0
    9.6577    1.3375   23.7964 H   0  0  0  0  0  0  0  0  0  0  0  0
    7.9762    0.8975   28.0817 H   0  0  0  0  0  0  0  0  0  0  0  0
    6.5294   -0.0869   23.9246 H   0  0  0  0  0  0  0  0  0  0  0  0
    7.2994   -1.4806   23.5627 H   0  0  0  0  0  0  0  0  0  0  0  0
    5.3156   -0.4201   22.0764 H   0  0  0  0  0  0  0  0  0  0  0  0
    6.3256   -1.5918   21.5531 H   0  0  0  0  0  0  0  0  0  0  0  0
    4.7884    1.7417   20.5300 H   0  0  0  0  0  0  0  0  0  0  0  0
    7.8864   -0.2485   18.6346 H   0  0  0  0  0  0  0  0  0  0  0  0
    5.0704    1.7317   16.4778 H   0  0  0  0  0  0  0  0  0  0  0  0
  1  2  1  0  0  0  0
  2  3  2  0  0  0  0
  2  4  1  0  0  0  0
  3  5  1  0  0  0  0
  3  6  1  0  0  0  0
  4  7  2  0  0  0  0
  5  8  2  0  0  0  0
  6  9  1  0  0  0  0
  7 10  1  0  0  0  0
  9 11  1  0  0  0  0
  9 12  1  0  0  0  0
 10 13  3  0  0  0  0
 11 14  2  0  0  0  0
 11 15  1  0  0  0  0
 12 16  1  0  0  0  0
 15 17  1  0  0  0  0
 17 18  2  0  0  0  0
 17 19  1  0  0  0  0
 18 20  1  0  0  0  0
 19 21  2  0  0  0  0
 20 22  2  0  0  0  0
  7  8  1  0  0  0  0
 15 16  1  0  0  0  0
 21 22  1  0  0  0  0
  4 23  1  0  0  0  0
  5 24  1  0  0  0  0
  6 25  1  0  0  0  0
  6 26  1  0  0  0  0
  8 27  1  0  0  0  0
 12 28  1  0  0  0  0
 12 29  1  0  0  0  0
 16 30  1  0  0  0  0
 16 31  1  0  0  0  0
 18 32  1  0  0  0  0
 19 33  1  0  0  0  0
 22 34  1  0  0  0  0
M  END
> <BIOSOLVEIT.HYDE_ESTIMATED_AFFINITY_LOWER_BOUNDARY [nM]>
37562.166554

> <BIOSOLVEIT.HYDE_ESTIMATED_AFFINITY_UPPER_BOUNDARY [nM]>
3732023.332263

> <BIOSOLVEIT.HYDE_LIGAND_EFFICIENCY range: ++, +, 0, -, -->
-

> <BIOSOLVEIT.HYDE_LIGAND_LIPOPHILIC_EFFICIENCY range: ++, +, 0, -, -->
--

> <BIOSOLVEIT.INTER_CLASH range: red, yellow, green>
green

> <BIOSOLVEIT.INTRA_CLASH range: red, yellow, green>
green

> <BIOSOLVEIT.LOGP>
2.44388

> <BIOSOLVEIT.MOLECULAR WEIGHT>
313.747

> <BIOSOLVEIT.MOLECULE_CHECKSUM>
LTE5LjU1OTQ7MC44ODkwNjI=

> <BIOSOLVEIT.TORSION_QUALITY range: red, yellow, green, not rotatable>
yellow

> <BIOSOLVEIT.TPSA>
73.12

> <BIOSOLVEIT.SEESAR_FAVORITE>
favorite

> <smc_score>
0.625

> <QED_score>
0.872

> <distance>
0.699

> <SimilarityPheSA_1>
0.639

> <Smiles>
N#Cc1ccc(CN2CCN(c3cncnc3)C2=O)c(Cl)c1

> <Similarity_SkelSpheres>
0.681

> <Cluster No>
303.0

> <QueryID>
PET-UNK-c9c1e0d8-3

> <SimilarityPheSA>
0.6391

> <Postera series>
3-aminopyridine-like

> <PDB_code>
Mpro-x12587

> <Approach>
DGM_focussed_RL

> <ID>
20210618_566

> <SimilarityPheSA_2>
0.718

> <OPTIBRIUM.logD>
2.91064

> <OPTIBRIUM.BBB category>
-

> <OPTIBRIUM.logP>
2.91064

> <OPTIBRIUM.P-gp category>
no

> <OPTIBRIUM.logS>
1.09339

> <OPTIBRIUM.HIA category>
+

> <OPTIBRIUM.PPB90 category>
high

> <OPTIBRIUM.2D6 affinity category>
medium

> <OPTIBRIUM.hERG pIC50>
5.09613

> <OPTIBRIUM.2C9 pKi>
5.06312

> <OPTIBRIUM.BBB log([brain]:[blood])>
-0.134624

> <OPTIBRIUM.logS @ pH7.4>
1.09339

$$$$
Compound 539_1_07
haSeeSAR  07122111353D 1   1.00000     0.00000     0
SeeSAR 11.0.2 hazemaj
 39 42  0  0  0  0            999 V2000
    9.8883    2.4724   22.6936 Cl  0  0  0  0  0  0  0  0  0  0  0  0
   10.5002    0.8000   22.6815 C   0  0  0  0  0  0  0  0  0  0  0  0
   11.8669    0.6046   22.8390 C   0  0  0  0  0  0  0  0  0  0  0  0
    9.6689   -0.3058   22.5161 C   0  0  0  0  0  0  0  0  0  0  0  0
   12.9435    2.0042   23.0664 Cl  0  0  0  0  0  0  0  0  0  0  0  0
   12.3836   -0.6856   22.8190 C   0  0  0  0  0  0  0  0  0  0  0  0
   10.1687   -1.5906   22.5345 C   0  0  0  0  0  0  0  0  0  0  0  0
    8.1753   -0.4162   22.2824 C   0  0  1  0  0  0  0  0  0  0  0  0
   11.5407   -1.7805   22.6676 C   0  0  0  0  0  0  0  0  0  0  0  0
    9.1702   -2.4861   22.4358 O   0  0  0  0  0  0  0  0  0  0  0  0
    7.6737    0.4563   21.1435 C   0  0  0  0  0  0  0  0  0  0  0  0
    8.0449   -1.8602   21.8486 C   0  0  0  0  0  0  0  0  0  0  0  0
    8.4036    1.3249   20.6659 O   0  0  0  0  0  0  0  0  0  0  0  0
    6.4524    0.2823   20.6652 N   0  0  0  0  0  0  0  0  0  0  0  0
    6.1798    0.5654   19.3208 C   0  0  0  0  0  0  0  0  0  0  0  0
    5.1182    1.2727   18.8404 N   0  0  0  0  0  0  0  0  0  0  0  0
    6.9366    0.1756   18.2569 C   0  0  0  0  0  0  0  0  0  0  0  0
    5.2187    1.3217   17.4832 C   0  0  0  0  0  0  0  0  0  0  0  0
    4.0469    1.8817   19.6437 C   0  0  0  0  0  0  0  0  0  0  0  0
    6.3028    0.6592   17.1536 N   0  3  0  0  0  0  0  0  0  0  0  0
    4.6582    2.7939   20.6955 C   0  0  0  0  0  0  0  0  0  0  0  0
    4.2325    2.3843   22.0752 C   0  0  0  0  0  0  0  0  0  0  0  0
    3.6232    3.5961   21.4304 C   0  0  0  0  0  0  0  0  0  0  0  0
   13.3689   -0.8271   22.9143 H   0  0  0  0  0  0  0  0  0  0  0  0
    7.6632   -0.2431   23.1237 H   0  0  0  0  0  0  0  0  0  0  0  0
   11.9206   -2.7054   22.6545 H   0  0  0  0  0  0  0  0  0  0  0  0
    8.0726   -1.9378   20.8520 H   0  0  0  0  0  0  0  0  0  0  0  0
    7.1946   -2.2605   22.1905 H   0  0  0  0  0  0  0  0  0  0  0  0
    5.7241   -0.0514   21.2636 H   0  0  0  0  0  0  0  0  0  0  0  0
    7.7831   -0.3562   18.2815 H   0  0  0  0  0  0  0  0  0  0  0  0
    4.5862    1.7765   16.8561 H   0  0  0  0  0  0  0  0  0  0  0  0
    3.5176    1.1623   20.0933 H   0  0  0  0  0  0  0  0  0  0  0  0
    3.4461    2.4151   19.0483 H   0  0  0  0  0  0  0  0  0  0  0  0
    5.5710    3.1756   20.5511 H   0  0  0  0  0  0  0  0  0  0  0  0
    4.8619    2.4906   22.8449 H   0  0  0  0  0  0  0  0  0  0  0  0
    3.6844    1.5579   22.2046 H   0  0  0  0  0  0  0  0  0  0  0  0
    2.6695    3.5767   21.1303 H   0  0  0  0  0  0  0  0  0  0  0  0
    3.8470    4.5094   21.7707 H   0  0  0  0  0  0  0  0  0  0  0  0
    6.6213    0.5270   16.2149 H   0  0  0  0  0  0  0  0  0  0  0  0
  1  2  1  0  0  0  0
  2  3  2  0  0  0  0
  2  4  1  0  0  0  0
  3  5  1  0  0  0  0
  3  6  1  0  0  0  0
  4  7  2  0  0  0  0
  4  8  1  0  0  0  0
  6  9  2  0  0  0  0
  7 10  1  0  0  0  0
  8 11  1  0  0  0  0
  8 12  1  0  0  0  0
 11 13  2  0  0  0  0
 11 14  1  0  0  0  0
 14 15  1  0  0  0  0
 15 16  1  0  0  0  0
 15 17  2  0  0  0  0
 16 18  1  0  0  0  0
 16 19  1  0  0  0  0
 17 20  1  0  0  0  0
 19 21  1  0  0  0  0
 21 22  1  0  0  0  0
 21 23  1  0  0  0  0
  7  9  1  0  0  0  0
 10 12  1  0  0  0  0
 18 20  2  0  0  0  0
 22 23  1  0  0  0  0
  6 24  1  0  0  0  0
  8 25  1  0  0  0  0
  9 26  1  0  0  0  0
 12 27  1  0  0  0  0
 12 28  1  0  0  0  0
 14 29  1  0  0  0  0
 17 30  1  0  0  0  0
 18 31  1  0  0  0  0
 19 32  1  0  0  0  0
 19 33  1  0  0  0  0
 21 34  1  0  0  0  0
 22 35  1  0  0  0  0
 22 36  1  0  0  0  0
 23 37  1  0  0  0  0
 23 38  1  0  0  0  0
 20 39  1  0  0  0  0
M  CHG  1  20   1
M  END
> <BIOSOLVEIT.HYDE_ESTIMATED_AFFINITY_LOWER_BOUNDARY [nM]>
38810.463560

> <BIOSOLVEIT.HYDE_ESTIMATED_AFFINITY_UPPER_BOUNDARY [nM]>
3856049.020348

> <BIOSOLVEIT.HYDE_LIGAND_EFFICIENCY range: ++, +, 0, -, -->
-

> <BIOSOLVEIT.HYDE_LIGAND_LIPOPHILIC_EFFICIENCY range: ++, +, 0, -, -->
--

> <BIOSOLVEIT.INTER_CLASH range: red, yellow, green>
green

> <BIOSOLVEIT.INTRA_CLASH range: red, yellow, green>
red

> <BIOSOLVEIT.LOGP>
3.1337

> <BIOSOLVEIT.MOLECULAR WEIGHT>
353.227

> <BIOSOLVEIT.MOLECULE_CHECKSUM>
LTE5LjQ3ODM7MC44NDY4ODM=

> <BIOSOLVEIT.TORSION_QUALITY range: red, yellow, green, not rotatable>
red

> <BIOSOLVEIT.TPSA>
57.4

> <BIOSOLVEIT.SEESAR_FAVORITE>
favorite

> <smc_score>
0.688

> <QED_score>
0.913

> <distance>
0.622

> <SimilarityPheSA_1>
0.726

> <Smiles>
O=C(Nc1cncn1CC1CC1)C1COc2ccc(Cl)c(Cl)c21

> <Similarity_SkelSpheres>
0.607

> <Cluster No>
288.0

> <QueryID>
JAG-UCB-a3ef7265-20

> <SimilarityPheSA>
0.7258

> <Postera series>
3-aminopyridine-like

> <PDB_code>
Mpro-x10324

> <Approach>
DGM_focussed_RL

> <ID>
20210618_538

> <SimilarityPheSA_2>
0.841

> <OPTIBRIUM.logD>
3.84148

> <OPTIBRIUM.BBB category>
-

> <OPTIBRIUM.logP>
3.84148

> <OPTIBRIUM.P-gp category>
no

> <OPTIBRIUM.logS>
1.56688

> <OPTIBRIUM.HIA category>
+

> <OPTIBRIUM.PPB90 category>
high

> <OPTIBRIUM.2D6 affinity category>
high

> <OPTIBRIUM.hERG pIC50>
4.88554

> <OPTIBRIUM.2C9 pKi>
5.21785

> <OPTIBRIUM.BBB log([brain]:[blood])>
-0.045877

> <OPTIBRIUM.logS @ pH7.4>
1.56688

$$$$
Compound 478_1_005
haSeeSAR  07122111353D 1   1.00000     0.00000     0
SeeSAR 11.0.2 hazemaj
 34 36  0  0  0  0            999 V2000
    4.0974    1.6187   26.7702 Cl  0  0  0  0  0  0  0  0  0  0  0  0
    5.4688    1.2191   25.7084 C   0  0  0  0  0  0  0  0  0  0  0  0
    5.6663    1.9427   24.5373 C   0  0  0  0  0  0  0  0  0  0  0  0
    6.3338    0.1867   26.0546 C   0  0  0  0  0  0  0  0  0  0  0  0
    4.8331    2.9272   24.2156 F   0  0  0  0  0  0  0  0  0  0  0  0
    6.7328    1.6420   23.6960 C   0  0  0  0  0  0  0  0  0  0  0  0
    7.3993   -0.1096   25.2115 C   0  0  0  0  0  0  0  0  0  0  0  0
    7.6023    0.6107   24.0382 C   0  0  0  0  0  0  0  0  0  0  0  0
    8.5006   -1.4329   25.6645 Cl  0  0  0  0  0  0  0  0  0  0  0  0
    8.7726    0.2699   23.1298 C   0  0  0  0  0  0  0  0  0  0  0  0
    8.2739   -0.3922   21.9158 N   0  0  0  0  0  0  0  0  0  0  0  0
    8.2784    0.2534   20.7610 C   0  0  0  0  0  0  0  0  0  0  0  0
    8.6999    1.4085   20.7032 O   0  0  0  0  0  0  0  0  0  0  0  0
    7.7627   -0.4311   19.5056 C   0  0  0  0  0  0  0  0  0  0  0  0
    6.7010    0.3880   18.9015 N   0  0  0  0  0  0  0  0  0  0  0  0
    6.6647    0.7253   17.6300 N   0  0  0  0  0  0  0  0  0  0  0  0
    5.6315    0.8947   19.5851 C   0  0  0  0  0  0  0  0  0  0  0  0
    5.5925    1.4545   17.4157 C   0  0  0  0  0  0  0  0  0  0  0  0
    5.2295    0.8283   20.8646 N   0  0  0  0  0  0  0  0  0  0  0  0
    4.9053    1.5845   18.6459 C   0  0  0  0  0  0  0  0  0  0  0  0
    4.1053    1.4241   21.2889 C   0  0  0  0  0  0  0  0  0  0  0  0
    3.7361    2.2118   19.0614 C   0  0  0  0  0  0  0  0  0  0  0  0
    3.3236    2.1383   20.3872 C   0  0  0  0  0  0  0  0  0  0  0  0
    6.1919   -0.3342   26.8964 H   0  0  0  0  0  0  0  0  0  0  0  0
    6.8732    2.1620   22.8534 H   0  0  0  0  0  0  0  0  0  0  0  0
    9.3998   -0.3432   23.6101 H   0  0  0  0  0  0  0  0  0  0  0  0
    9.2544    1.1092   22.8778 H   0  0  0  0  0  0  0  0  0  0  0  0
    7.9315   -1.3305   21.9627 H   0  0  0  0  0  0  0  0  0  0  0  0
    7.3955   -1.3304   19.7432 H   0  0  0  0  0  0  0  0  0  0  0  0
    8.5125   -0.5391   18.8529 H   0  0  0  0  0  0  0  0  0  0  0  0
    5.3123    1.8475   16.5399 H   0  0  0  0  0  0  0  0  0  0  0  0
    3.8309    1.3553   22.2481 H   0  0  0  0  0  0  0  0  0  0  0  0
    3.1861    2.7214   18.3998 H   0  0  0  0  0  0  0  0  0  0  0  0
    2.4826    2.5893   20.6860 H   0  0  0  0  0  0  0  0  0  0  0  0
  1  2  1  0  0  0  0
  2  3  2  0  0  0  0
  2  4  1  0  0  0  0
  3  5  1  0  0  0  0
  3  6  1  0  0  0  0
  4  7  2  0  0  0  0
  6  8  2  0  0  0  0
  7  9  1  0  0  0  0
  8 10  1  0  0  0  0
 10 11  1  0  0  0  0
 11 12  1  0  0  0  0
 12 13  2  0  0  0  0
 12 14  1  0  0  0  0
 14 15  1  0  0  0  0
 15 16  1  0  0  0  0
 15 17  1  0  0  0  0
 16 18  2  0  0  0  0
 17 19  2  0  0  0  0
 17 20  1  0  0  0  0
 19 21  1  0  0  0  0
 20 22  2  0  0  0  0
 21 23  2  0  0  0  0
  7  8  1  0  0  0  0
 18 20  1  0  0  0  0
 22 23  1  0  0  0  0
  4 24  1  0  0  0  0
  6 25  1  0  0  0  0
 10 26  1  0  0  0  0
 10 27  1  0  0  0  0
 11 28  1  0  0  0  0
 14 29  1  0  0  0  0
 14 30  1  0  0  0  0
 18 31  1  0  0  0  0
 21 32  1  0  0  0  0
 22 33  1  0  0  0  0
 23 34  1  0  0  0  0
M  END
> <BIOSOLVEIT.HYDE_ESTIMATED_AFFINITY_LOWER_BOUNDARY [nM]>
40242.070118

> <BIOSOLVEIT.HYDE_ESTIMATED_AFFINITY_UPPER_BOUNDARY [nM]>
3998287.596128

> <BIOSOLVEIT.HYDE_LIGAND_EFFICIENCY range: ++, +, 0, -, -->
-

> <BIOSOLVEIT.HYDE_LIGAND_LIPOPHILIC_EFFICIENCY range: ++, +, 0, -, -->
--

> <BIOSOLVEIT.INTER_CLASH range: red, yellow, green>
green

> <BIOSOLVEIT.INTRA_CLASH range: red, yellow, green>
green

> <BIOSOLVEIT.LOGP>
3.1936

> <BIOSOLVEIT.MOLECULAR WEIGHT>
353.183

> <BIOSOLVEIT.MOLECULE_CHECKSUM>
LTE5LjM4ODU7MC44NDI5Nzk=

> <BIOSOLVEIT.TORSION_QUALITY range: red, yellow, green, not rotatable>
yellow

> <BIOSOLVEIT.TPSA>
59.81

> <BIOSOLVEIT.SEESAR_FAVORITE>
favorite

> <smc_score>
0.688

> <QED_score>
0.733

> <distance>
0.636

> <SimilarityPheSA_1>
0.631

> <Smiles>
O=C(Cn1ncc2cccnc21)NCc1cc(F)c(Cl)cc1Cl

> <Similarity_SkelSpheres>
0.654

> <Cluster No>
250.0

> <QueryID>
MIC-UNK-91acba05-6

> <SimilarityPheSA>
0.631

> <Postera series>
3-aminopyridine-like

> <PDB_code>
Mpro-x12710, Mpro-P0033

> <Approach>
DGM_focussed_RL

> <ID>
20210618_477

> <SimilarityPheSA_2>
0.801

> <OPTIBRIUM.logD>
2.78741

> <OPTIBRIUM.BBB category>
-

> <OPTIBRIUM.logP>
2.78741

> <OPTIBRIUM.P-gp category>
no

> <OPTIBRIUM.logS>
1.10238

> <OPTIBRIUM.HIA category>
+

> <OPTIBRIUM.PPB90 category>
high

> <OPTIBRIUM.2D6 affinity category>
medium

> <OPTIBRIUM.hERG pIC50>
5.0133

> <OPTIBRIUM.2C9 pKi>
5.37023

> <OPTIBRIUM.BBB log([brain]:[blood])>
-0.38874

> <OPTIBRIUM.logS @ pH7.4>
1.10238

$$$$
Compound 664_1_06
haSeeSAR  07122111353D 1   1.00000     0.00000     0
SeeSAR 11.0.2 hazemaj
 43 46  0  0  0  0            999 V2000
    4.1182    6.6969   22.0244 Cl  0  0  0  0  0  0  0  0  0  0  0  0
    5.0584    5.3398   22.6894 C   0  0  0  0  0  0  0  0  0  0  0  0
    6.3806    5.1502   22.2879 C   0  0  0  0  0  0  0  0  0  0  0  0
    4.4892    4.4660   23.6089 C   0  0  0  0  0  0  0  0  0  0  0  0
    6.9194    5.9859   21.4044 F   0  0  0  0  0  0  0  0  0  0  0  0
    7.1295    4.1006   22.8117 C   0  0  0  0  0  0  0  0  0  0  0  0
    5.2700    3.4205   24.1031 C   0  0  0  0  0  0  0  0  0  0  0  0
    6.5952    3.2071   23.7200 C   0  0  0  0  0  0  0  0  0  0  0  0
    8.5703    3.6750   22.6135 C   0  0  0  0  0  0  0  0  0  0  0  0
    7.5445    2.3054   24.0441 O   0  0  0  0  0  0  0  0  0  0  0  0
    8.5979    2.2417   23.0966 C   0  0  1  0  0  0  0  0  0  0  0  0
    8.3065    1.2532   21.9819 C   0  0  0  0  0  0  0  0  0  0  0  0
    8.8991    1.3454   20.9069 O   0  0  0  0  0  0  0  0  0  0  0  0
    7.4157    0.2925   22.1659 N   0  0  0  0  0  0  0  0  0  0  0  0
    7.1335   -0.6646   21.0866 C   0  0  0  0  0  0  0  0  0  0  0  0
    6.5387    0.0738   19.8962 C   0  0  0  0  0  0  0  0  0  0  0  0
    5.4172    0.8811   20.0575 C   0  0  0  0  0  0  0  0  0  0  0  0
    7.1379   -0.0368   18.6480 C   0  0  0  0  0  0  0  0  0  0  0  0
    4.9144    1.5256   18.9305 C   0  0  0  0  0  0  0  0  0  0  0  0
    4.7688    1.0681   21.4201 C   0  0  0  0  0  0  0  0  0  0  0  0
    6.6268    0.6248   17.5969 N   0  0  0  0  0  0  0  0  0  0  0  0
    5.5358    1.3996   17.6932 C   0  0  0  0  0  0  0  0  0  0  0  0
    3.6600    2.3758   19.0379 C   0  0  0  0  0  0  0  0  0  0  0  0
    3.3246    1.5129   21.3014 C   0  0  0  0  0  0  0  0  0  0  0  0
    3.3713    2.7860   20.4725 C   0  0  0  0  0  0  0  0  0  0  0  0
    3.5426    4.5839   23.9090 H   0  0  0  0  0  0  0  0  0  0  0  0
    4.8596    2.7928   24.7646 H   0  0  0  0  0  0  0  0  0  0  0  0
    9.1872    4.2450   23.1562 H   0  0  0  0  0  0  0  0  0  0  0  0
    8.8277    3.7300   21.6487 H   0  0  0  0  0  0  0  0  0  0  0  0
    9.4679    2.0314   23.5426 H   0  0  0  0  0  0  0  0  0  0  0  0
    6.9343    0.2176   23.0392 H   0  0  0  0  0  0  0  0  0  0  0  0
    6.4832   -1.3513   21.4117 H   0  0  0  0  0  0  0  0  0  0  0  0
    7.9825   -1.1144   20.8095 H   0  0  0  0  0  0  0  0  0  0  0  0
    7.9498   -0.6089   18.5321 H   0  0  0  0  0  0  0  0  0  0  0  0
    5.2797    1.7606   21.9293 H   0  0  0  0  0  0  0  0  0  0  0  0
    4.8001    0.1998   21.9151 H   0  0  0  0  0  0  0  0  0  0  0  0
    5.1766    1.8769   16.8912 H   0  0  0  0  0  0  0  0  0  0  0  0
    2.8833    1.8508   18.6898 H   0  0  0  0  0  0  0  0  0  0  0  0
    3.7803    3.2000   18.4844 H   0  0  0  0  0  0  0  0  0  0  0  0
    2.9380    1.6960   22.2052 H   0  0  0  0  0  0  0  0  0  0  0  0
    2.7783    0.8135   20.8405 H   0  0  0  0  0  0  0  0  0  0  0  0
    2.4926    3.2606   20.5232 H   0  0  0  0  0  0  0  0  0  0  0  0
    4.0953    3.3881   20.8092 H   0  0  0  0  0  0  0  0  0  0  0  0
  1  2  1  0  0  0  0
  2  3  2  0  0  0  0
  2  4  1  0  0  0  0
  3  5  1  0  0  0  0
  3  6  1  0  0  0  0
  4  7  2  0  0  0  0
  6  8  2  0  0  0  0
  6  9  1  0  0  0  0
  8 10  1  0  0  0  0
  9 11  1  0  0  0  0
 11 12  1  0  0  0  0
 12 13  2  0  0  0  0
 12 14  1  0  0  0  0
 14 15  1  0  0  0  0
 15 16  1  0  0  0  0
 16 17  2  0  0  0  0
 16 18  1  0  0  0  0
 17 19  1  0  0  0  0
 17 20  1  0  0  0  0
 18 21  2  0  0  0  0
 19 22  2  0  0  0  0
 19 23  1  0  0  0  0
 20 24  1  0  0  0  0
 23 25  1  0  0  0  0
  7  8  1  0  0  0  0
 10 11  1  0  0  0  0
 21 22  1  0  0  0  0
 24 25  1  0  0  0  0
  4 26  1  0  0  0  0
  7 27  1  0  0  0  0
  9 28  1  0  0  0  0
  9 29  1  0  0  0  0
 11 30  1  0  0  0  0
 14 31  1  0  0  0  0
 15 32  1  0  0  0  0
 15 33  1  0  0  0  0
 18 34  1  0  0  0  0
 20 35  1  0  0  0  0
 20 36  1  0  0  0  0
 22 37  1  0  0  0  0
 23 38  1  0  0  0  0
 23 39  1  0  0  0  0
 24 40  1  0  0  0  0
 24 41  1  0  0  0  0
 25 42  1  0  0  0  0
 25 43  1  0  0  0  0
M  END
> <BIOSOLVEIT.HYDE_ESTIMATED_AFFINITY_LOWER_BOUNDARY [nM]>
44069.678194

> <BIOSOLVEIT.HYDE_ESTIMATED_AFFINITY_UPPER_BOUNDARY [nM]>
4378583.089128

> <BIOSOLVEIT.HYDE_LIGAND_EFFICIENCY range: ++, +, 0, -, -->
--

> <BIOSOLVEIT.HYDE_LIGAND_LIPOPHILIC_EFFICIENCY range: ++, +, 0, -, -->
--

> <BIOSOLVEIT.INTER_CLASH range: red, yellow, green>
green

> <BIOSOLVEIT.INTRA_CLASH range: red, yellow, green>
yellow

> <BIOSOLVEIT.LOGP>
3.3728

> <BIOSOLVEIT.MOLECULAR WEIGHT>
360.814

> <BIOSOLVEIT.MOLECULE_CHECKSUM>
LTE5LjE2MzM7MC43NjY1MzI=

> <BIOSOLVEIT.TORSION_QUALITY range: red, yellow, green, not rotatable>
green

> <BIOSOLVEIT.TPSA>
51.22

> <BIOSOLVEIT.SEESAR_FAVORITE>
favorite

> <smc_score>
0.688

> <QED_score>
0.913

> <distance>
0.667

> <SimilarityPheSA_1>
0.642

> <Smiles>
O=C(NCc1cncc2c1CCCC2)C1Cc2c(ccc(Cl)c2F)O1

> <Similarity_SkelSpheres>
0.699

> <Cluster No>
367.0

> <QueryID>
MAT-POS-199e2e7c-1

> <SimilarityPheSA>
0.6416

> <Postera series>
3-aminopyridine-like

> <PDB_code>
Mpro-x12000

> <Approach>
DGM_focussed_RL

> <ID>
20210618_663

> <SimilarityPheSA_2>
0.782

> <OPTIBRIUM.logD>
3.34577

> <OPTIBRIUM.BBB category>
+

> <OPTIBRIUM.logP>
3.34577

> <OPTIBRIUM.P-gp category>
no

> <OPTIBRIUM.logS>
1.10716

> <OPTIBRIUM.HIA category>
+

> <OPTIBRIUM.PPB90 category>
high

> <OPTIBRIUM.2D6 affinity category>
high

> <OPTIBRIUM.hERG pIC50>
4.67952

> <OPTIBRIUM.2C9 pKi>
5.31822

> <OPTIBRIUM.BBB log([brain]:[blood])>
-0.230286

> <OPTIBRIUM.logS @ pH7.4>
1.10716

$$$$
Compound 377_1_04
haSeeSAR  07122111353D 1   1.00000     0.00000     0
SeeSAR 11.0.2 hazemaj
 46 49  0  0  0  0            999 V2000
    3.5977    6.9577   22.9242 Cl  0  0  0  0  0  0  0  0  0  0  0  0
    5.1366    6.0724   22.7858 C   0  0  0  0  0  0  0  0  0  0  0  0
    5.2845    4.8495   23.4352 C   0  0  0  0  0  0  0  0  0  0  0  0
    6.1941    6.5740   22.0342 C   0  0  0  0  0  0  0  0  0  0  0  0
    4.2627    4.3401   24.1570 O   0  0  0  0  0  0  0  0  0  0  0  0
    6.4986    4.1779   23.3231 C   0  0  0  0  0  0  0  0  0  0  0  0
    5.9756    8.1180   21.1756 Cl  0  0  0  0  0  0  0  0  0  0  0  0
    7.4041    5.8822   21.9711 C   0  0  0  0  0  0  0  0  0  0  0  0
    4.1209    4.6836   25.5275 C   0  0  0  0  0  0  0  0  0  0  0  0
    7.5742    4.6766   22.6406 C   0  0  0  0  0  0  0  0  0  0  0  0
    6.9216    2.8338   23.8884 C   0  0  1  0  0  0  0  0  0  0  0  0
    8.6433    3.8659   22.8094 O   0  0  0  0  0  0  0  0  0  0  0  0
    8.2521    2.5669   23.2191 C   0  0  2  0  0  0  0  0  0  0  0  0
    7.2162    2.9343   25.3766 C   0  0  0  0  0  0  0  0  0  0  0  0
    8.1602    1.5765   22.0704 C   0  0  0  0  0  0  0  0  0  0  0  0
    8.7627    1.7953   21.0193 O   0  0  0  0  0  0  0  0  0  0  0  0
    7.4328    0.4791   22.1997 N   0  0  0  0  0  0  0  0  0  0  0  0
    7.3438   -0.4791   21.0884 C   0  0  0  0  0  0  0  0  0  0  0  0
    6.6566    0.1819   19.9027 C   0  0  0  0  0  0  0  0  0  0  0  0
    5.4652    0.8967   20.0193 C   0  0  0  0  0  0  0  0  0  0  0  0
    7.2523    0.0615   18.6510 C   0  0  0  0  0  0  0  0  0  0  0  0
    4.8979    1.4722   18.8867 C   0  0  0  0  0  0  0  0  0  0  0  0
    4.8117    1.0584   21.2394 C   0  0  0  0  0  0  0  0  0  0  0  0
    6.6879    0.6251   17.5725 N   0  0  0  0  0  0  0  0  0  0  0  0
    5.5421    1.3164   17.6634 C   0  0  0  0  0  0  0  0  0  0  0  0
    3.7105    2.1907   18.9746 C   0  0  0  0  0  0  0  0  0  0  0  0
    3.6236    1.7725   21.3505 C   0  0  0  0  0  0  0  0  0  0  0  0
    3.0766    2.3393   20.2037 C   0  0  0  0  0  0  0  0  0  0  0  0
    8.1600    6.2595   21.4363 H   0  0  0  0  0  0  0  0  0  0  0  0
    3.3185    4.2220   25.9056 H   0  0  0  0  0  0  0  0  0  0  0  0
    4.9372    4.3974   26.0292 H   0  0  0  0  0  0  0  0  0  0  0  0
    4.0071    5.6735   25.6130 H   0  0  0  0  0  0  0  0  0  0  0  0
    6.2530    2.1177   23.6880 H   0  0  0  0  0  0  0  0  0  0  0  0
    8.9012    2.2253   23.8988 H   0  0  0  0  0  0  0  0  0  0  0  0
    7.4919    2.0377   25.7231 H   0  0  0  0  0  0  0  0  0  0  0  0
    7.9552    3.5912   25.5265 H   0  0  0  0  0  0  0  0  0  0  0  0
    6.3953    3.2401   25.8589 H   0  0  0  0  0  0  0  0  0  0  0  0
    6.9433    0.3014   23.0534 H   0  0  0  0  0  0  0  0  0  0  0  0
    6.8151   -1.2770   21.3777 H   0  0  0  0  0  0  0  0  0  0  0  0
    8.2638   -0.7672   20.8224 H   0  0  0  0  0  0  0  0  0  0  0  0
    8.1071   -0.4485   18.5548 H   0  0  0  0  0  0  0  0  0  0  0  0
    5.2095    0.6486   22.0603 H   0  0  0  0  0  0  0  0  0  0  0  0
    5.1456    1.7251   16.8413 H   0  0  0  0  0  0  0  0  0  0  0  0
    3.3122    2.6007   18.1541 H   0  0  0  0  0  0  0  0  0  0  0  0
    3.1716    1.8764   22.2364 H   0  0  0  0  0  0  0  0  0  0  0  0
    2.2228    2.8564   20.2635 H   0  0  0  0  0  0  0  0  0  0  0  0
  1  2  1  0  0  0  0
  2  3  2  0  0  0  0
  2  4  1  0  0  0  0
  3  5  1  0  0  0  0
  3  6  1  0  0  0  0
  4  7  1  0  0  0  0
  4  8  2  0  0  0  0
  5  9  1  0  0  0  0
  6 10  2  0  0  0  0
  6 11  1  0  0  0  0
 10 12  1  0  0  0  0
 11 13  1  0  0  0  0
 11 14  1  0  0  0  0
 13 15  1  0  0  0  0
 15 16  2  0  0  0  0
 15 17  1  0  0  0  0
 17 18  1  0  0  0  0
 18 19  1  0  0  0  0
 19 20  1  0  0  0  0
 19 21  2  0  0  0  0
 20 22  1  0  0  0  0
 20 23  2  0  0  0  0
 21 24  1  0  0  0  0
 22 25  1  0  0  0  0
 22 26  2  0  0  0  0
 23 27  1  0  0  0  0
 26 28  1  0  0  0  0
  8 10  1  0  0  0  0
 12 13  1  0  0  0  0
 24 25  2  0  0  0  0
 27 28  2  0  0  0  0
  8 29  1  0  0  0  0
  9 30  1  0  0  0  0
  9 31  1  0  0  0  0
  9 32  1  0  0  0  0
 11 33  1  0  0  0  0
 13 34  1  0  0  0  0
 14 35  1  0  0  0  0
 14 36  1  0  0  0  0
 14 37  1  0  0  0  0
 17 38  1  0  0  0  0
 18 39  1  0  0  0  0
 18 40  1  0  0  0  0
 21 41  1  0  0  0  0
 23 42  1  0  0  0  0
 25 43  1  0  0  0  0
 26 44  1  0  0  0  0
 27 45  1  0  0  0  0
 28 46  1  0  0  0  0
M  END
> <BIOSOLVEIT.HYDE_ESTIMATED_AFFINITY_LOWER_BOUNDARY [nM]>
45320.633301

> <BIOSOLVEIT.HYDE_ESTIMATED_AFFINITY_UPPER_BOUNDARY [nM]>
4502872.875241

> <BIOSOLVEIT.HYDE_LIGAND_EFFICIENCY range: ++, +, 0, -, -->
--

> <BIOSOLVEIT.HYDE_LIGAND_LIPOPHILIC_EFFICIENCY range: ++, +, 0, -, -->
--

> <BIOSOLVEIT.INTER_CLASH range: red, yellow, green>
green

> <BIOSOLVEIT.INTRA_CLASH range: red, yellow, green>
yellow

> <BIOSOLVEIT.LOGP>
4.7311

> <BIOSOLVEIT.MOLECULAR WEIGHT>
417.29

> <BIOSOLVEIT.MOLECULE_CHECKSUM>
LTE5LjA5Mzk7MC42ODE5MjU=

> <BIOSOLVEIT.TORSION_QUALITY range: red, yellow, green, not rotatable>
green

> <BIOSOLVEIT.TPSA>
60.45

> <BIOSOLVEIT.SEESAR_FAVORITE>
favorite

> <smc_score>
0.813

> <QED_score>
0.667

> <distance>
0.595

> <SimilarityPheSA_1>
0.641

> <Smiles>
COc1c(Cl)c(Cl)cc2c1C(C)C(C(=O)NCc1cncc3ccccc13)O2

> <Similarity_SkelSpheres>
0.749

> <Cluster No>
191.0

> <QueryID>
JAN-GHE-5a013bed-2

> <SimilarityPheSA>
0.6409

> <Postera series>
3-aminopyridine-like

> <PDB_code>
Mpro-x10466

> <Approach>
DGM_focussed_RL

> <ID>
20210618_376

> <SimilarityPheSA_2>
0.72

> <OPTIBRIUM.logD>
4.49267

> <OPTIBRIUM.BBB category>
-

> <OPTIBRIUM.logP>
4.49267

> <OPTIBRIUM.P-gp category>
no

> <OPTIBRIUM.logS>
-0.374012

> <OPTIBRIUM.HIA category>
+

> <OPTIBRIUM.PPB90 category>
high

> <OPTIBRIUM.2D6 affinity category>
high

> <OPTIBRIUM.hERG pIC50>
4.67383

> <OPTIBRIUM.2C9 pKi>
5.94949

> <OPTIBRIUM.BBB log([brain]:[blood])>
-0.450526

> <OPTIBRIUM.logS @ pH7.4>
-0.374012

$$$$
Compound 377_1_06
haSeeSAR  07122111353D 1   1.00000     0.00000     0
SeeSAR 11.0.2 hazemaj
 46 49  0  0  0  0            999 V2000
    7.0858    2.6984   29.1864 Cl  0  0  0  0  0  0  0  0  0  0  0  0
    7.2100    2.7947   27.4130 C   0  0  0  0  0  0  0  0  0  0  0  0
    7.7014    1.7026   26.7118 C   0  0  0  0  0  0  0  0  0  0  0  0
    6.8250    3.9369   26.7183 C   0  0  0  0  0  0  0  0  0  0  0  0
    8.0683    0.6073   27.4135 O   0  0  0  0  0  0  0  0  0  0  0  0
    7.7980    1.7739   25.3234 C   0  0  0  0  0  0  0  0  0  0  0  0
    6.2049    5.3219   27.6490 Cl  0  0  0  0  0  0  0  0  0  0  0  0
    6.9321    3.9605   25.3303 C   0  0  0  0  0  0  0  0  0  0  0  0
    9.3390    0.5619   28.0457 C   0  0  0  0  0  0  0  0  0  0  0  0
    7.4179    2.8777   24.5991 C   0  0  0  0  0  0  0  0  0  0  0  0
    8.2980    0.7647   24.3088 C   0  0  1  0  0  0  0  0  0  0  0  0
    7.5846    2.6711   23.2748 O   0  0  0  0  0  0  0  0  0  0  0  0
    8.4847    1.6008   23.0596 C   0  0  2  0  0  0  0  0  0  0  0  0
    9.5719    0.0381   24.7164 C   0  0  0  0  0  0  0  0  0  0  0  0
    8.1301    0.7922   21.8230 C   0  0  0  0  0  0  0  0  0  0  0  0
    8.7161    1.0026   20.7611 O   0  0  0  0  0  0  0  0  0  0  0  0
    7.1916   -0.1381   21.8876 N   0  0  0  0  0  0  0  0  0  0  0  0
    6.8485   -0.9204   20.6912 C   0  0  0  0  0  0  0  0  0  0  0  0
    6.2774    0.0047   19.6268 C   0  0  0  0  0  0  0  0  0  0  0  0
    5.1821    0.8369   19.8547 C   0  0  0  0  0  0  0  0  0  0  0  0
    6.8828    0.0129   18.3741 C   0  0  0  0  0  0  0  0  0  0  0  0
    4.7182    1.6546   18.8290 C   0  0  0  0  0  0  0  0  0  0  0  0
    4.5254    0.8818   21.0829 C   0  0  0  0  0  0  0  0  0  0  0  0
    6.4189    0.8099   17.4001 N   0  0  0  0  0  0  0  0  0  0  0  0
    5.3665    1.6175   17.5987 C   0  0  0  0  0  0  0  0  0  0  0  0
    3.6279    2.4946   19.0293 C   0  0  0  0  0  0  0  0  0  0  0  0
    3.4333    1.7137   21.3049 C   0  0  0  0  0  0  0  0  0  0  0  0
    2.9887    2.5225   20.2642 C   0  0  0  0  0  0  0  0  0  0  0  0
    6.6500    4.7849   24.8397 H   0  0  0  0  0  0  0  0  0  0  0  0
    9.4457   -0.3136   28.5171 H   0  0  0  0  0  0  0  0  0  0  0  0
   10.0576    0.6596   27.3571 H   0  0  0  0  0  0  0  0  0  0  0  0
    9.4085    1.3078   28.7082 H   0  0  0  0  0  0  0  0  0  0  0  0
    7.5793    0.0895   24.1423 H   0  0  0  0  0  0  0  0  0  0  0  0
    9.4240    1.9386   23.0005 H   0  0  0  0  0  0  0  0  0  0  0  0
    9.8330   -0.6058   23.9972 H   0  0  0  0  0  0  0  0  0  0  0  0
   10.3063    0.7031   24.8511 H   0  0  0  0  0  0  0  0  0  0  0  0
    9.4131   -0.4605   25.5685 H   0  0  0  0  0  0  0  0  0  0  0  0
    6.7156   -0.3090   22.7502 H   0  0  0  0  0  0  0  0  0  0  0  0
    6.1685   -1.6137   20.9300 H   0  0  0  0  0  0  0  0  0  0  0  0
    7.6705   -1.3673   20.3383 H   0  0  0  0  0  0  0  0  0  0  0  0
    7.6693   -0.5793   18.1988 H   0  0  0  0  0  0  0  0  0  0  0  0
    4.8491    0.2978   21.8273 H   0  0  0  0  0  0  0  0  0  0  0  0
    5.0438    2.2002   16.8528 H   0  0  0  0  0  0  0  0  0  0  0  0
    3.3035    3.0786   18.2851 H   0  0  0  0  0  0  0  0  0  0  0  0
    2.9769    1.7301   22.1947 H   0  0  0  0  0  0  0  0  0  0  0  0
    2.2049    3.1275   20.4047 H   0  0  0  0  0  0  0  0  0  0  0  0
  1  2  1  0  0  0  0
  2  3  2  0  0  0  0
  2  4  1  0  0  0  0
  3  5  1  0  0  0  0
  3  6  1  0  0  0  0
  4  7  1  0  0  0  0
  4  8  2  0  0  0  0
  5  9  1  0  0  0  0
  6 10  2  0  0  0  0
  6 11  1  0  0  0  0
 10 12  1  0  0  0  0
 11 13  1  0  0  0  0
 11 14  1  0  0  0  0
 13 15  1  0  0  0  0
 15 16  2  0  0  0  0
 15 17  1  0  0  0  0
 17 18  1  0  0  0  0
 18 19  1  0  0  0  0
 19 20  1  0  0  0  0
 19 21  2  0  0  0  0
 20 22  1  0  0  0  0
 20 23  2  0  0  0  0
 21 24  1  0  0  0  0
 22 25  1  0  0  0  0
 22 26  2  0  0  0  0
 23 27  1  0  0  0  0
 26 28  1  0  0  0  0
  8 10  1  0  0  0  0
 12 13  1  0  0  0  0
 24 25  2  0  0  0  0
 27 28  2  0  0  0  0
  8 29  1  0  0  0  0
  9 30  1  0  0  0  0
  9 31  1  0  0  0  0
  9 32  1  0  0  0  0
 11 33  1  0  0  0  0
 13 34  1  0  0  0  0
 14 35  1  0  0  0  0
 14 36  1  0  0  0  0
 14 37  1  0  0  0  0
 17 38  1  0  0  0  0
 18 39  1  0  0  0  0
 18 40  1  0  0  0  0
 21 41  1  0  0  0  0
 23 42  1  0  0  0  0
 25 43  1  0  0  0  0
 26 44  1  0  0  0  0
 27 45  1  0  0  0  0
 28 46  1  0  0  0  0
M  END
> <BIOSOLVEIT.HYDE_ESTIMATED_AFFINITY_LOWER_BOUNDARY [nM]>
45767.809731

> <BIOSOLVEIT.HYDE_ESTIMATED_AFFINITY_UPPER_BOUNDARY [nM]>
4547302.497495

> <BIOSOLVEIT.HYDE_LIGAND_EFFICIENCY range: ++, +, 0, -, -->
--

> <BIOSOLVEIT.HYDE_LIGAND_LIPOPHILIC_EFFICIENCY range: ++, +, 0, -, -->
--

> <BIOSOLVEIT.INTER_CLASH range: red, yellow, green>
green

> <BIOSOLVEIT.INTRA_CLASH range: red, yellow, green>
green

> <BIOSOLVEIT.LOGP>
4.7311

> <BIOSOLVEIT.MOLECULAR WEIGHT>
417.29

> <BIOSOLVEIT.MOLECULE_CHECKSUM>
LTE5LjA2OTY7MC42ODEwNTY=

> <BIOSOLVEIT.TORSION_QUALITY range: red, yellow, green, not rotatable>
green

> <BIOSOLVEIT.TPSA>
60.45

> <BIOSOLVEIT.SEESAR_FAVORITE>
favorite

> <smc_score>
0.813

> <QED_score>
0.667

> <distance>
0.595

> <SimilarityPheSA_1>
0.641

> <Smiles>
COc1c(Cl)c(Cl)cc2c1C(C)C(C(=O)NCc1cncc3ccccc13)O2

> <Similarity_SkelSpheres>
0.749

> <Cluster No>
191.0

> <QueryID>
JAN-GHE-5a013bed-2

> <SimilarityPheSA>
0.6409

> <Postera series>
3-aminopyridine-like

> <PDB_code>
Mpro-x10466

> <Approach>
DGM_focussed_RL

> <ID>
20210618_376

> <SimilarityPheSA_2>
0.72

> <OPTIBRIUM.logD>
4.49267

> <OPTIBRIUM.BBB category>
-

> <OPTIBRIUM.logP>
4.49267

> <OPTIBRIUM.P-gp category>
no

> <OPTIBRIUM.logS>
-0.374012

> <OPTIBRIUM.HIA category>
+

> <OPTIBRIUM.PPB90 category>
high

> <OPTIBRIUM.2D6 affinity category>
high

> <OPTIBRIUM.hERG pIC50>
4.67383

> <OPTIBRIUM.2C9 pKi>
5.94949

> <OPTIBRIUM.BBB log([brain]:[blood])>
-0.450526

> <OPTIBRIUM.logS @ pH7.4>
-0.374012

$$$$
Compound 664_1_05
haSeeSAR  07122111353D 1   1.00000     0.00000     0
SeeSAR 11.0.2 hazemaj
 43 46  0  0  0  0            999 V2000
    4.1989    6.7507   22.0120 Cl  0  0  0  0  0  0  0  0  0  0  0  0
    5.1167    5.3824   22.6851 C   0  0  0  0  0  0  0  0  0  0  0  0
    6.4453    5.1869   22.3086 C   0  0  0  0  0  0  0  0  0  0  0  0
    4.5233    4.5053   23.5861 C   0  0  0  0  0  0  0  0  0  0  0  0
    7.0072    6.0257   21.4426 F   0  0  0  0  0  0  0  0  0  0  0  0
    7.1766    4.1284   22.8391 C   0  0  0  0  0  0  0  0  0  0  0  0
    5.2871    3.4509   24.0876 C   0  0  0  0  0  0  0  0  0  0  0  0
    6.6184    3.2315   23.7296 C   0  0  0  0  0  0  0  0  0  0  0  0
    8.6183    3.6946   22.6665 C   0  0  0  0  0  0  0  0  0  0  0  0
    7.5552    2.3210   24.0656 O   0  0  0  0  0  0  0  0  0  0  0  0
    8.6269    2.2576   23.1389 C   0  0  1  0  0  0  0  0  0  0  0  0
    8.3514    1.2796   22.0110 C   0  0  0  0  0  0  0  0  0  0  0  0
    8.9435    1.3950   20.9379 O   0  0  0  0  0  0  0  0  0  0  0  0
    7.4750    0.3033   22.1813 N   0  0  0  0  0  0  0  0  0  0  0  0
    7.2083   -0.6438   21.0891 C   0  0  0  0  0  0  0  0  0  0  0  0
    6.5842    0.0991   19.9137 C   0  0  0  0  0  0  0  0  0  0  0  0
    5.4491    0.8920   20.0651 C   0  0  0  0  0  0  0  0  0  0  0  0
    7.1770   -0.0237   18.6600 C   0  0  0  0  0  0  0  0  0  0  0  0
    4.9333    1.5075   18.9269 C   0  0  0  0  0  0  0  0  0  0  0  0
    4.8186    1.0725   21.4375 C   0  0  0  0  0  0  0  0  0  0  0  0
    6.6476    0.6196   17.6066 N   0  0  0  0  0  0  0  0  0  0  0  0
    5.5427    1.3799   17.6853 C   0  0  0  0  0  0  0  0  0  0  0  0
    3.6631    2.3393   19.0189 C   0  0  0  0  0  0  0  0  0  0  0  0
    3.3723    1.5164   21.3048 C   0  0  0  0  0  0  0  0  0  0  0  0
    3.3774    2.7716   20.4466 C   0  0  0  0  0  0  0  0  0  0  0  0
    3.5717    4.6273   23.8680 H   0  0  0  0  0  0  0  0  0  0  0  0
    4.8595    2.8208   24.7358 H   0  0  0  0  0  0  0  0  0  0  0  0
    9.2279    4.2563   23.2259 H   0  0  0  0  0  0  0  0  0  0  0  0
    8.8954    3.7553   21.7076 H   0  0  0  0  0  0  0  0  0  0  0  0
    9.4863    2.0381   23.6006 H   0  0  0  0  0  0  0  0  0  0  0  0
    6.9941    0.2095   23.0531 H   0  0  0  0  0  0  0  0  0  0  0  0
    6.5784   -1.3519   21.4083 H   0  0  0  0  0  0  0  0  0  0  0  0
    8.0662   -1.0673   20.7982 H   0  0  0  0  0  0  0  0  0  0  0  0
    7.9938   -0.5888   18.5441 H   0  0  0  0  0  0  0  0  0  0  0  0
    5.3300    1.7653   21.9459 H   0  0  0  0  0  0  0  0  0  0  0  0
    4.8520    0.2039   21.9317 H   0  0  0  0  0  0  0  0  0  0  0  0
    5.1717    1.8381   16.8776 H   0  0  0  0  0  0  0  0  0  0  0  0
    2.8939    1.7943   18.6850 H   0  0  0  0  0  0  0  0  0  0  0  0
    3.7670    3.1538   18.4481 H   0  0  0  0  0  0  0  0  0  0  0  0
    2.9893    1.7170   22.2065 H   0  0  0  0  0  0  0  0  0  0  0  0
    2.8310    0.8001   20.8646 H   0  0  0  0  0  0  0  0  0  0  0  0
    2.4867    3.2237   20.4958 H   0  0  0  0  0  0  0  0  0  0  0  0
    4.0880    3.4000   20.7629 H   0  0  0  0  0  0  0  0  0  0  0  0
  1  2  1  0  0  0  0
  2  3  2  0  0  0  0
  2  4  1  0  0  0  0
  3  5  1  0  0  0  0
  3  6  1  0  0  0  0
  4  7  2  0  0  0  0
  6  8  2  0  0  0  0
  6  9  1  0  0  0  0
  8 10  1  0  0  0  0
  9 11  1  0  0  0  0
 11 12  1  0  0  0  0
 12 13  2  0  0  0  0
 12 14  1  0  0  0  0
 14 15  1  0  0  0  0
 15 16  1  0  0  0  0
 16 17  2  0  0  0  0
 16 18  1  0  0  0  0
 17 19  1  0  0  0  0
 17 20  1  0  0  0  0
 18 21  2  0  0  0  0
 19 22  2  0  0  0  0
 19 23  1  0  0  0  0
 20 24  1  0  0  0  0
 23 25  1  0  0  0  0
  7  8  1  0  0  0  0
 10 11  1  0  0  0  0
 21 22  1  0  0  0  0
 24 25  1  0  0  0  0
  4 26  1  0  0  0  0
  7 27  1  0  0  0  0
  9 28  1  0  0  0  0
  9 29  1  0  0  0  0
 11 30  1  0  0  0  0
 14 31  1  0  0  0  0
 15 32  1  0  0  0  0
 15 33  1  0  0  0  0
 18 34  1  0  0  0  0
 20 35  1  0  0  0  0
 20 36  1  0  0  0  0
 22 37  1  0  0  0  0
 23 38  1  0  0  0  0
 23 39  1  0  0  0  0
 24 40  1  0  0  0  0
 24 41  1  0  0  0  0
 25 42  1  0  0  0  0
 25 43  1  0  0  0  0
M  END
> <BIOSOLVEIT.HYDE_ESTIMATED_AFFINITY_LOWER_BOUNDARY [nM]>
55638.660212

> <BIOSOLVEIT.HYDE_ESTIMATED_AFFINITY_UPPER_BOUNDARY [nM]>
5528029.853855

> <BIOSOLVEIT.HYDE_LIGAND_EFFICIENCY range: ++, +, 0, -, -->
--

> <BIOSOLVEIT.HYDE_LIGAND_LIPOPHILIC_EFFICIENCY range: ++, +, 0, -, -->
--

> <BIOSOLVEIT.INTER_CLASH range: red, yellow, green>
green

> <BIOSOLVEIT.INTRA_CLASH range: red, yellow, green>
yellow

> <BIOSOLVEIT.LOGP>
3.3728

> <BIOSOLVEIT.MOLECULAR WEIGHT>
360.814

> <BIOSOLVEIT.MOLECULE_CHECKSUM>
LTE4LjU4NTQ7MC43NDM0MTc=

> <BIOSOLVEIT.TORSION_QUALITY range: red, yellow, green, not rotatable>
green

> <BIOSOLVEIT.TPSA>
51.22

> <BIOSOLVEIT.SEESAR_FAVORITE>
favorite

> <smc_score>
0.688

> <QED_score>
0.913

> <distance>
0.667

> <SimilarityPheSA_1>
0.642

> <Smiles>
O=C(NCc1cncc2c1CCCC2)C1Cc2c(ccc(Cl)c2F)O1

> <Similarity_SkelSpheres>
0.699

> <Cluster No>
367.0

> <QueryID>
MAT-POS-199e2e7c-1

> <SimilarityPheSA>
0.6416

> <Postera series>
3-aminopyridine-like

> <PDB_code>
Mpro-x12000

> <Approach>
DGM_focussed_RL

> <ID>
20210618_663

> <SimilarityPheSA_2>
0.782

> <OPTIBRIUM.logD>
3.34577

> <OPTIBRIUM.BBB category>
+

> <OPTIBRIUM.logP>
3.34577

> <OPTIBRIUM.P-gp category>
no

> <OPTIBRIUM.logS>
1.10716

> <OPTIBRIUM.HIA category>
+

> <OPTIBRIUM.PPB90 category>
high

> <OPTIBRIUM.2D6 affinity category>
high

> <OPTIBRIUM.hERG pIC50>
4.67952

> <OPTIBRIUM.2C9 pKi>
5.31822

> <OPTIBRIUM.BBB log([brain]:[blood])>
-0.230286

> <OPTIBRIUM.logS @ pH7.4>
1.10716

$$$$
Compound 360_1_01
haSeeSAR  07122111353D 1   1.00000     0.00000     0
SeeSAR 11.0.2 hazemaj
 39 41  0  0  0  0            999 V2000
   12.8986    1.9083   23.3223 Cl  0  0  0  0  0  0  0  0  0  0  0  0
   11.7495    0.6438   22.8242 C   0  0  0  0  0  0  0  0  0  0  0  0
   12.2270   -0.5702   22.3416 C   0  0  0  0  0  0  0  0  0  0  0  0
   10.3815    0.8743   22.9199 C   0  0  0  0  0  0  0  0  0  0  0  0
   13.9807   -0.8535   22.2246 Cl  0  0  0  0  0  0  0  0  0  0  0  0
   11.3462   -1.5716   21.9460 C   0  0  0  0  0  0  0  0  0  0  0  0
    9.5043   -0.1295   22.5239 C   0  0  0  0  0  0  0  0  0  0  0  0
    9.9766   -1.3449   22.0399 C   0  0  0  0  0  0  0  0  0  0  0  0
    8.0078    0.1182   22.6264 C   0  0  0  0  0  0  0  0  0  0  0  0
    7.5062    0.7340   21.3304 C   0  0  0  0  0  0  0  0  0  0  0  0
    8.1917    1.5688   20.7399 O   0  0  0  0  0  0  0  0  0  0  0  0
    6.3330    0.3729   20.8370 N   0  0  0  0  0  0  0  0  0  0  0  0
    6.0450    0.5915   19.4831 C   0  0  0  0  0  0  0  0  0  0  0  0
    4.9279    1.1809   18.9781 N   0  0  0  0  0  0  0  0  0  0  0  0
    6.8330    0.2541   18.4243 C   0  0  0  0  0  0  0  0  0  0  0  0
    5.0498    1.1842   17.6731 N   0  0  0  0  0  0  0  0  0  0  0  0
    3.7871    1.7020   19.7488 C   0  0  0  0  0  0  0  0  0  0  0  0
    6.1496    0.6506   17.3140 N   0  0  0  0  0  0  0  0  0  0  0  0
    4.2628    2.2988   21.0679 C   0  0  0  0  0  0  0  0  0  0  0  0
    3.0093    2.7326   18.9427 C   0  0  0  0  0  0  0  0  0  0  0  0
    3.7715    3.7234   21.2641 C   0  0  0  0  0  0  0  0  0  0  0  0
    1.9074    3.2954   19.8321 C   0  0  0  0  0  0  0  0  0  0  0  0
    2.3622    3.8126   21.0809 O   0  0  0  0  0  0  0  0  0  0  0  0
   10.0349    1.7458   23.2670 H   0  0  0  0  0  0  0  0  0  0  0  0
   11.6928   -2.4429   21.5988 H   0  0  0  0  0  0  0  0  0  0  0  0
    9.3318   -2.0559   21.7593 H   0  0  0  0  0  0  0  0  0  0  0  0
    7.8246    0.7432   23.3852 H   0  0  0  0  0  0  0  0  0  0  0  0
    7.5367   -0.7490   22.7877 H   0  0  0  0  0  0  0  0  0  0  0  0
    5.6518   -0.0560   21.4302 H   0  0  0  0  0  0  0  0  0  0  0  0
    7.7274   -0.1921   18.4553 H   0  0  0  0  0  0  0  0  0  0  0  0
    3.1742    0.9389   19.9542 H   0  0  0  0  0  0  0  0  0  0  0  0
    5.2627    2.2986   21.0794 H   0  0  0  0  0  0  0  0  0  0  0  0
    3.9206    1.7339   21.8188 H   0  0  0  0  0  0  0  0  0  0  0  0
    2.6063    2.2988   18.1369 H   0  0  0  0  0  0  0  0  0  0  0  0
    3.6212    3.4690   18.6539 H   0  0  0  0  0  0  0  0  0  0  0  0
    4.2249    4.3189   20.6009 H   0  0  0  0  0  0  0  0  0  0  0  0
    3.9994    4.0222   22.1908 H   0  0  0  0  0  0  0  0  0  0  0  0
    1.2511    2.5639   20.0172 H   0  0  0  0  0  0  0  0  0  0  0  0
    1.4518    4.0341   19.3353 H   0  0  0  0  0  0  0  0  0  0  0  0
  1  2  1  0  0  0  0
  2  3  2  0  0  0  0
  2  4  1  0  0  0  0
  3  5  1  0  0  0  0
  3  6  1  0  0  0  0
  4  7  2  0  0  0  0
  6  8  2  0  0  0  0
  7  9  1  0  0  0  0
  9 10  1  0  0  0  0
 10 11  2  0  0  0  0
 10 12  1  0  0  0  0
 12 13  1  0  0  0  0
 13 14  1  0  0  0  0
 13 15  2  0  0  0  0
 14 16  1  0  0  0  0
 14 17  1  0  0  0  0
 15 18  1  0  0  0  0
 17 19  1  0  0  0  0
 17 20  1  0  0  0  0
 19 21  1  0  0  0  0
 20 22  1  0  0  0  0
 21 23  1  0  0  0  0
  7  8  1  0  0  0  0
 16 18  2  0  0  0  0
 22 23  1  0  0  0  0
  4 24  1  0  0  0  0
  6 25  1  0  0  0  0
  8 26  1  0  0  0  0
  9 27  1  0  0  0  0
  9 28  1  0  0  0  0
 12 29  1  0  0  0  0
 15 30  1  0  0  0  0
 17 31  1  0  0  0  0
 19 32  1  0  0  0  0
 19 33  1  0  0  0  0
 20 34  1  0  0  0  0
 20 35  1  0  0  0  0
 21 36  1  0  0  0  0
 21 37  1  0  0  0  0
 22 38  1  0  0  0  0
 22 39  1  0  0  0  0
M  END
> <BIOSOLVEIT.HYDE_ESTIMATED_AFFINITY_LOWER_BOUNDARY [nM]>
58026.133592

> <BIOSOLVEIT.HYDE_ESTIMATED_AFFINITY_UPPER_BOUNDARY [nM]>
5765239.449972

> <BIOSOLVEIT.HYDE_LIGAND_EFFICIENCY range: ++, +, 0, -, -->
--

> <BIOSOLVEIT.HYDE_LIGAND_LIPOPHILIC_EFFICIENCY range: ++, +, 0, -, -->
--

> <BIOSOLVEIT.INTER_CLASH range: red, yellow, green>
green

> <BIOSOLVEIT.INTRA_CLASH range: red, yellow, green>
yellow

> <BIOSOLVEIT.LOGP>
3.1176

> <BIOSOLVEIT.MOLECULAR WEIGHT>
355.223

> <BIOSOLVEIT.MOLECULE_CHECKSUM>
LTE4LjQ4MTM7MC44MDM1MzQ=

> <BIOSOLVEIT.TORSION_QUALITY range: red, yellow, green, not rotatable>
yellow

> <BIOSOLVEIT.TPSA>
69.04

> <BIOSOLVEIT.SEESAR_FAVORITE>
favorite

> <smc_score>
0.563

> <QED_score>
0.915

> <distance>
0.593

> <SimilarityPheSA_1>
0.71

> <Smiles>
O=C(Cc1ccc(Cl)c(Cl)c1)Nc1cnnn1C1CCOCC1

> <Similarity_SkelSpheres>
0.685

> <Cluster No>
182.0

> <QueryID>
JAG-UCB-a3ef7265-20

> <SimilarityPheSA>
0.7104

> <Postera series>
3-aminopyridine-like

> <PDB_code>
Mpro-x10324

> <Approach>
DGM_focussed_RL

> <ID>
20210618_359

> <SimilarityPheSA_2>
0.804

> <OPTIBRIUM.logD>
3.02299

> <OPTIBRIUM.BBB category>
-

> <OPTIBRIUM.logP>
3.02299

> <OPTIBRIUM.P-gp category>
no

> <OPTIBRIUM.logS>
2.32741

> <OPTIBRIUM.HIA category>
+

> <OPTIBRIUM.PPB90 category>
high

> <OPTIBRIUM.2D6 affinity category>
high

> <OPTIBRIUM.hERG pIC50>
4.85157

> <OPTIBRIUM.2C9 pKi>
5.12299

> <OPTIBRIUM.BBB log([brain]:[blood])>
-0.141794

> <OPTIBRIUM.logS @ pH7.4>
2.32741

$$$$
Compound 360_1_02
haSeeSAR  07122111353D 1   1.00000     0.00000     0
SeeSAR 11.0.2 hazemaj
 39 41  0  0  0  0            999 V2000
   12.8946    1.9130   23.3252 Cl  0  0  0  0  0  0  0  0  0  0  0  0
   11.7508    0.6444   22.8254 C   0  0  0  0  0  0  0  0  0  0  0  0
   12.2334   -0.5674   22.3423 C   0  0  0  0  0  0  0  0  0  0  0  0
   10.3818    0.8695   22.9204 C   0  0  0  0  0  0  0  0  0  0  0  0
   13.9882   -0.8438   22.2262 Cl  0  0  0  0  0  0  0  0  0  0  0  0
   11.3568   -1.5719   21.9454 C   0  0  0  0  0  0  0  0  0  0  0  0
    9.5088   -0.1375   22.5232 C   0  0  0  0  0  0  0  0  0  0  0  0
    9.9863   -1.3508   22.0386 C   0  0  0  0  0  0  0  0  0  0  0  0
    8.0114    0.1042   22.6248 C   0  0  0  0  0  0  0  0  0  0  0  0
    7.5098    0.7272   21.3323 C   0  0  0  0  0  0  0  0  0  0  0  0
    8.1942    1.5669   20.7476 O   0  0  0  0  0  0  0  0  0  0  0  0
    6.3376    0.3670   20.8356 N   0  0  0  0  0  0  0  0  0  0  0  0
    6.0503    0.5935   19.4829 C   0  0  0  0  0  0  0  0  0  0  0  0
    4.9304    1.1798   18.9804 N   0  0  0  0  0  0  0  0  0  0  0  0
    6.8418    0.2685   18.4230 C   0  0  0  0  0  0  0  0  0  0  0  0
    5.0542    1.1933   17.6757 N   0  0  0  0  0  0  0  0  0  0  0  0
    3.7852    1.6885   19.7530 C   0  0  0  0  0  0  0  0  0  0  0  0
    6.1577    0.6688   17.3145 N   0  0  0  0  0  0  0  0  0  0  0  0
    3.0109    2.7261   18.9528 C   0  0  0  0  0  0  0  0  0  0  0  0
    4.2468    2.2469   21.0887 C   0  0  0  0  0  0  0  0  0  0  0  0
    1.9253    3.3344   19.8279 C   0  0  0  0  0  0  0  0  0  0  0  0
    3.8193    3.6981   21.2430 C   0  0  0  0  0  0  0  0  0  0  0  0
    2.4081    3.8264   21.0742 O   0  0  0  0  0  0  0  0  0  0  0  0
   10.0316    1.7392   23.2680 H   0  0  0  0  0  0  0  0  0  0  0  0
   11.7070   -2.4417   21.5978 H   0  0  0  0  0  0  0  0  0  0  0  0
    9.3445   -2.0641   21.7571 H   0  0  0  0  0  0  0  0  0  0  0  0
    7.8247    0.7232   23.3877 H   0  0  0  0  0  0  0  0  0  0  0  0
    7.5430   -0.7657   22.7793 H   0  0  0  0  0  0  0  0  0  0  0  0
    5.6567   -0.0669   21.4256 H   0  0  0  0  0  0  0  0  0  0  0  0
    7.7389   -0.1724   18.4522 H   0  0  0  0  0  0  0  0  0  0  0  0
    3.1717    0.9203   19.9360 H   0  0  0  0  0  0  0  0  0  0  0  0
    2.5916    2.2887   18.1574 H   0  0  0  0  0  0  0  0  0  0  0  0
    3.6349    3.4454   18.6474 H   0  0  0  0  0  0  0  0  0  0  0  0
    5.2439    2.1914   21.1404 H   0  0  0  0  0  0  0  0  0  0  0  0
    3.8441    1.7060   21.8271 H   0  0  0  0  0  0  0  0  0  0  0  0
    1.2361    2.6332   20.0102 H   0  0  0  0  0  0  0  0  0  0  0  0
    1.5055    4.0930   19.3296 H   0  0  0  0  0  0  0  0  0  0  0  0
    4.2845    4.2529   20.5532 H   0  0  0  0  0  0  0  0  0  0  0  0
    4.0717    4.0198   22.1554 H   0  0  0  0  0  0  0  0  0  0  0  0
  1  2  1  0  0  0  0
  2  3  2  0  0  0  0
  2  4  1  0  0  0  0
  3  5  1  0  0  0  0
  3  6  1  0  0  0  0
  4  7  2  0  0  0  0
  6  8  2  0  0  0  0
  7  9  1  0  0  0  0
  9 10  1  0  0  0  0
 10 11  2  0  0  0  0
 10 12  1  0  0  0  0
 12 13  1  0  0  0  0
 13 14  1  0  0  0  0
 13 15  2  0  0  0  0
 14 16  1  0  0  0  0
 14 17  1  0  0  0  0
 15 18  1  0  0  0  0
 17 19  1  0  0  0  0
 17 20  1  0  0  0  0
 19 21  1  0  0  0  0
 20 22  1  0  0  0  0
 21 23  1  0  0  0  0
  7  8  1  0  0  0  0
 16 18  2  0  0  0  0
 22 23  1  0  0  0  0
  4 24  1  0  0  0  0
  6 25  1  0  0  0  0
  8 26  1  0  0  0  0
  9 27  1  0  0  0  0
  9 28  1  0  0  0  0
 12 29  1  0  0  0  0
 15 30  1  0  0  0  0
 17 31  1  0  0  0  0
 19 32  1  0  0  0  0
 19 33  1  0  0  0  0
 20 34  1  0  0  0  0
 20 35  1  0  0  0  0
 21 36  1  0  0  0  0
 21 37  1  0  0  0  0
 22 38  1  0  0  0  0
 22 39  1  0  0  0  0
M  END
> <BIOSOLVEIT.HYDE_ESTIMATED_AFFINITY_LOWER_BOUNDARY [nM]>
58535.601888

> <BIOSOLVEIT.HYDE_ESTIMATED_AFFINITY_UPPER_BOUNDARY [nM]>
5815858.137472

> <BIOSOLVEIT.HYDE_LIGAND_EFFICIENCY range: ++, +, 0, -, -->
--

> <BIOSOLVEIT.HYDE_LIGAND_LIPOPHILIC_EFFICIENCY range: ++, +, 0, -, -->
--

> <BIOSOLVEIT.INTER_CLASH range: red, yellow, green>
green

> <BIOSOLVEIT.INTRA_CLASH range: red, yellow, green>
yellow

> <BIOSOLVEIT.LOGP>
3.1176

> <BIOSOLVEIT.MOLECULAR WEIGHT>
355.223

> <BIOSOLVEIT.MOLECULE_CHECKSUM>
LTE4LjQ1OTY7MC44MDI1OTI=

> <BIOSOLVEIT.TORSION_QUALITY range: red, yellow, green, not rotatable>
yellow

> <BIOSOLVEIT.TPSA>
69.04

> <BIOSOLVEIT.SEESAR_FAVORITE>
favorite

> <smc_score>
0.563

> <QED_score>
0.915

> <distance>
0.593

> <SimilarityPheSA_1>
0.71

> <Smiles>
O=C(Cc1ccc(Cl)c(Cl)c1)Nc1cnnn1C1CCOCC1

> <Similarity_SkelSpheres>
0.685

> <Cluster No>
182.0

> <QueryID>
JAG-UCB-a3ef7265-20

> <SimilarityPheSA>
0.7104

> <Postera series>
3-aminopyridine-like

> <PDB_code>
Mpro-x10324

> <Approach>
DGM_focussed_RL

> <ID>
20210618_359

> <SimilarityPheSA_2>
0.804

> <OPTIBRIUM.logD>
3.02299

> <OPTIBRIUM.BBB category>
-

> <OPTIBRIUM.logP>
3.02299

> <OPTIBRIUM.P-gp category>
no

> <OPTIBRIUM.logS>
2.32741

> <OPTIBRIUM.HIA category>
+

> <OPTIBRIUM.PPB90 category>
high

> <OPTIBRIUM.2D6 affinity category>
high

> <OPTIBRIUM.hERG pIC50>
4.85157

> <OPTIBRIUM.2C9 pKi>
5.12299

> <OPTIBRIUM.BBB log([brain]:[blood])>
-0.141794

> <OPTIBRIUM.logS @ pH7.4>
2.32741

$$$$
Compound 539_1_06
haSeeSAR  07122111353D 1   1.00000     0.00000     0
SeeSAR 11.0.2 hazemaj
 39 42  0  0  0  0            999 V2000
    9.9197    2.4615   22.7015 Cl  0  0  0  0  0  0  0  0  0  0  0  0
   10.5710    0.8042   22.6746 C   0  0  0  0  0  0  0  0  0  0  0  0
   11.9437    0.6408   22.8155 C   0  0  0  0  0  0  0  0  0  0  0  0
    9.7644   -0.3204   22.5139 C   0  0  0  0  0  0  0  0  0  0  0  0
   12.9893    2.0647   23.0368 Cl  0  0  0  0  0  0  0  0  0  0  0  0
   12.4907   -0.6367   22.7837 C   0  0  0  0  0  0  0  0  0  0  0  0
   10.2948   -1.5929   22.5206 C   0  0  0  0  0  0  0  0  0  0  0  0
    8.2712   -0.4653   22.2969 C   0  0  1  0  0  0  0  0  0  0  0  0
   11.6724   -1.7507   22.6370 C   0  0  0  0  0  0  0  0  0  0  0  0
    9.3168   -2.5116   22.4294 O   0  0  0  0  0  0  0  0  0  0  0  0
    7.7357    0.3998   21.1678 C   0  0  0  0  0  0  0  0  0  0  0  0
    8.1702   -1.9102   21.8581 C   0  0  0  0  0  0  0  0  0  0  0  0
    8.4536    1.2601   20.6579 O   0  0  0  0  0  0  0  0  0  0  0  0
    6.4980    0.2283   20.7329 N   0  0  0  0  0  0  0  0  0  0  0  0
    6.1813    0.5010   19.3960 C   0  0  0  0  0  0  0  0  0  0  0  0
    5.0582    1.1243   18.9399 N   0  0  0  0  0  0  0  0  0  0  0  0
    6.9497    0.1841   18.3163 C   0  0  0  0  0  0  0  0  0  0  0  0
    5.1321    1.1941   17.5818 C   0  0  0  0  0  0  0  0  0  0  0  0
    3.9543    1.6365   19.7662 C   0  0  0  0  0  0  0  0  0  0  0  0
    6.2607    0.6250   17.2283 N   0  3  0  0  0  0  0  0  0  0  0  0
    3.2989    2.8146   19.0627 C   0  0  0  0  0  0  0  0  0  0  0  0
    2.5878    3.6991   20.0447 C   0  0  0  0  0  0  0  0  0  0  0  0
    1.8007    2.7779   19.1572 C   0  0  0  0  0  0  0  0  0  0  0  0
   13.4802   -0.7550   22.8668 H   0  0  0  0  0  0  0  0  0  0  0  0
    7.7650   -0.3081   23.1449 H   0  0  0  0  0  0  0  0  0  0  0  0
   12.0740   -2.6662   22.6152 H   0  0  0  0  0  0  0  0  0  0  0  0
    8.1881   -1.9829   20.8609 H   0  0  0  0  0  0  0  0  0  0  0  0
    7.3337   -2.3321   22.2080 H   0  0  0  0  0  0  0  0  0  0  0  0
    5.7887   -0.0960   21.3587 H   0  0  0  0  0  0  0  0  0  0  0  0
    7.8368   -0.2773   18.3221 H   0  0  0  0  0  0  0  0  0  0  0  0
    4.4546    1.6019   16.9696 H   0  0  0  0  0  0  0  0  0  0  0  0
    4.3111    1.9336   20.6519 H   0  0  0  0  0  0  0  0  0  0  0  0
    3.2782    0.9130   19.9049 H   0  0  0  0  0  0  0  0  0  0  0  0
    3.7354    3.2172   18.2580 H   0  0  0  0  0  0  0  0  0  0  0  0
    2.5544    4.6872   19.8946 H   0  0  0  0  0  0  0  0  0  0  0  0
    2.6547    3.5128   21.0249 H   0  0  0  0  0  0  0  0  0  0  0  0
    1.3437    1.9782   19.5465 H   0  0  0  0  0  0  0  0  0  0  0  0
    1.2435    3.1525   18.4162 H   0  0  0  0  0  0  0  0  0  0  0  0
    6.5735    0.5280   16.2834 H   0  0  0  0  0  0  0  0  0  0  0  0
  1  2  1  0  0  0  0
  2  3  2  0  0  0  0
  2  4  1  0  0  0  0
  3  5  1  0  0  0  0
  3  6  1  0  0  0  0
  4  7  2  0  0  0  0
  4  8  1  0  0  0  0
  6  9  2  0  0  0  0
  7 10  1  0  0  0  0
  8 11  1  0  0  0  0
  8 12  1  0  0  0  0
 11 13  2  0  0  0  0
 11 14  1  0  0  0  0
 14 15  1  0  0  0  0
 15 16  1  0  0  0  0
 15 17  2  0  0  0  0
 16 18  1  0  0  0  0
 16 19  1  0  0  0  0
 17 20  1  0  0  0  0
 19 21  1  0  0  0  0
 21 22  1  0  0  0  0
 21 23  1  0  0  0  0
  7  9  1  0  0  0  0
 10 12  1  0  0  0  0
 18 20  2  0  0  0  0
 22 23  1  0  0  0  0
  6 24  1  0  0  0  0
  8 25  1  0  0  0  0
  9 26  1  0  0  0  0
 12 27  1  0  0  0  0
 12 28  1  0  0  0  0
 14 29  1  0  0  0  0
 17 30  1  0  0  0  0
 18 31  1  0  0  0  0
 19 32  1  0  0  0  0
 19 33  1  0  0  0  0
 21 34  1  0  0  0  0
 22 35  1  0  0  0  0
 22 36  1  0  0  0  0
 23 37  1  0  0  0  0
 23 38  1  0  0  0  0
 20 39  1  0  0  0  0
M  CHG  1  20   1
M  END
> <BIOSOLVEIT.HYDE_ESTIMATED_AFFINITY_LOWER_BOUNDARY [nM]>
58859.211704

> <BIOSOLVEIT.HYDE_ESTIMATED_AFFINITY_UPPER_BOUNDARY [nM]>
5848010.686042

> <BIOSOLVEIT.HYDE_LIGAND_EFFICIENCY range: ++, +, 0, -, -->
--

> <BIOSOLVEIT.HYDE_LIGAND_LIPOPHILIC_EFFICIENCY range: ++, +, 0, -, -->
--

> <BIOSOLVEIT.INTER_CLASH range: red, yellow, green>
green

> <BIOSOLVEIT.INTRA_CLASH range: red, yellow, green>
yellow

> <BIOSOLVEIT.LOGP>
3.1337

> <BIOSOLVEIT.MOLECULAR WEIGHT>
353.227

> <BIOSOLVEIT.MOLECULE_CHECKSUM>
LTE4LjQ0NTk7MC44MDE5OTc=

> <BIOSOLVEIT.TORSION_QUALITY range: red, yellow, green, not rotatable>
yellow

> <BIOSOLVEIT.TPSA>
57.4

> <BIOSOLVEIT.SEESAR_FAVORITE>
favorite

> <smc_score>
0.688

> <QED_score>
0.913

> <distance>
0.622

> <SimilarityPheSA_1>
0.726

> <Smiles>
O=C(Nc1cncn1CC1CC1)C1COc2ccc(Cl)c(Cl)c21

> <Similarity_SkelSpheres>
0.607

> <Cluster No>
288.0

> <QueryID>
JAG-UCB-a3ef7265-20

> <SimilarityPheSA>
0.7258

> <Postera series>
3-aminopyridine-like

> <PDB_code>
Mpro-x10324

> <Approach>
DGM_focussed_RL

> <ID>
20210618_538

> <SimilarityPheSA_2>
0.841

> <OPTIBRIUM.logD>
3.84148

> <OPTIBRIUM.BBB category>
-

> <OPTIBRIUM.logP>
3.84148

> <OPTIBRIUM.P-gp category>
no

> <OPTIBRIUM.logS>
1.56688

> <OPTIBRIUM.HIA category>
+

> <OPTIBRIUM.PPB90 category>
high

> <OPTIBRIUM.2D6 affinity category>
high

> <OPTIBRIUM.hERG pIC50>
4.88554

> <OPTIBRIUM.2C9 pKi>
5.21785

> <OPTIBRIUM.BBB log([brain]:[blood])>
-0.045877

> <OPTIBRIUM.logS @ pH7.4>
1.56688

$$$$
Compound 478_1_009
haSeeSAR  07122111353D 1   1.00000     0.00000     0
SeeSAR 11.0.2 hazemaj
 34 36  0  0  0  0            999 V2000
    4.0318    1.7291   26.6425 Cl  0  0  0  0  0  0  0  0  0  0  0  0
    5.4061    1.2766   25.6059 C   0  0  0  0  0  0  0  0  0  0  0  0
    5.6563    1.9949   24.4419 C   0  0  0  0  0  0  0  0  0  0  0  0
    6.2207    0.2080   25.9649 C   0  0  0  0  0  0  0  0  0  0  0  0
    4.8709    3.0142   24.1079 F   0  0  0  0  0  0  0  0  0  0  0  0
    6.7257    1.6531   23.6202 C   0  0  0  0  0  0  0  0  0  0  0  0
    7.2893   -0.1295   25.1415 C   0  0  0  0  0  0  0  0  0  0  0  0
    7.5450    0.5855   23.9752 C   0  0  0  0  0  0  0  0  0  0  0  0
    8.3259   -1.4987   25.6107 Cl  0  0  0  0  0  0  0  0  0  0  0  0
    8.7178    0.1994   23.0884 C   0  0  0  0  0  0  0  0  0  0  0  0
    8.2161   -0.4376   21.8623 N   0  0  0  0  0  0  0  0  0  0  0  0
    8.2384    0.2236   20.7166 C   0  0  0  0  0  0  0  0  0  0  0  0
    8.6790    1.3724   20.6775 O   0  0  0  0  0  0  0  0  0  0  0  0
    7.7197   -0.4351   19.4488 C   0  0  0  0  0  0  0  0  0  0  0  0
    6.6647    0.4021   18.8578 N   0  0  0  0  0  0  0  0  0  0  0  0
    6.6334    0.7633   17.5927 N   0  0  0  0  0  0  0  0  0  0  0  0
    5.5969    0.9031   19.5484 C   0  0  0  0  0  0  0  0  0  0  0  0
    5.5664    1.5034   17.3898 C   0  0  0  0  0  0  0  0  0  0  0  0
    5.1917    0.8154   20.8256 N   0  0  0  0  0  0  0  0  0  0  0  0
    4.8774    1.6150   18.6208 C   0  0  0  0  0  0  0  0  0  0  0  0
    4.0705    1.4106   21.2586 C   0  0  0  0  0  0  0  0  0  0  0  0
    3.7114    2.2421   19.0454 C   0  0  0  0  0  0  0  0  0  0  0  0
    3.2955    2.1466   20.3688 C   0  0  0  0  0  0  0  0  0  0  0  0
    6.0409   -0.3092   26.8017 H   0  0  0  0  0  0  0  0  0  0  0  0
    6.9040    2.1694   22.7826 H   0  0  0  0  0  0  0  0  0  0  0  0
    9.3096   -0.4406   23.5784 H   0  0  0  0  0  0  0  0  0  0  0  0
    9.2387    1.0189   22.8492 H   0  0  0  0  0  0  0  0  0  0  0  0
    7.8582   -1.3708   21.8941 H   0  0  0  0  0  0  0  0  0  0  0  0
    7.3457   -1.3357   19.6701 H   0  0  0  0  0  0  0  0  0  0  0  0
    8.4696   -0.5369   18.7952 H   0  0  0  0  0  0  0  0  0  0  0  0
    5.2908    1.9144   16.5209 H   0  0  0  0  0  0  0  0  0  0  0  0
    3.7935    1.3258   22.2158 H   0  0  0  0  0  0  0  0  0  0  0  0
    3.1662    2.7675   18.3922 H   0  0  0  0  0  0  0  0  0  0  0  0
    2.4567    2.5976   20.6742 H   0  0  0  0  0  0  0  0  0  0  0  0
  1  2  1  0  0  0  0
  2  3  2  0  0  0  0
  2  4  1  0  0  0  0
  3  5  1  0  0  0  0
  3  6  1  0  0  0  0
  4  7  2  0  0  0  0
  6  8  2  0  0  0  0
  7  9  1  0  0  0  0
  8 10  1  0  0  0  0
 10 11  1  0  0  0  0
 11 12  1  0  0  0  0
 12 13  2  0  0  0  0
 12 14  1  0  0  0  0
 14 15  1  0  0  0  0
 15 16  1  0  0  0  0
 15 17  1  0  0  0  0
 16 18  2  0  0  0  0
 17 19  2  0  0  0  0
 17 20  1  0  0  0  0
 19 21  1  0  0  0  0
 20 22  2  0  0  0  0
 21 23  2  0  0  0  0
  7  8  1  0  0  0  0
 18 20  1  0  0  0  0
 22 23  1  0  0  0  0
  4 24  1  0  0  0  0
  6 25  1  0  0  0  0
 10 26  1  0  0  0  0
 10 27  1  0  0  0  0
 11 28  1  0  0  0  0
 14 29  1  0  0  0  0
 14 30  1  0  0  0  0
 18 31  1  0  0  0  0
 21 32  1  0  0  0  0
 22 33  1  0  0  0  0
 23 34  1  0  0  0  0
M  END
> <BIOSOLVEIT.HYDE_ESTIMATED_AFFINITY_LOWER_BOUNDARY [nM]>
58871.907251

> <BIOSOLVEIT.HYDE_ESTIMATED_AFFINITY_UPPER_BOUNDARY [nM]>
5849272.063620

> <BIOSOLVEIT.HYDE_LIGAND_EFFICIENCY range: ++, +, 0, -, -->
--

> <BIOSOLVEIT.HYDE_LIGAND_LIPOPHILIC_EFFICIENCY range: ++, +, 0, -, -->
--

> <BIOSOLVEIT.INTER_CLASH range: red, yellow, green>
green

> <BIOSOLVEIT.INTRA_CLASH range: red, yellow, green>
green

> <BIOSOLVEIT.LOGP>
3.1936

> <BIOSOLVEIT.MOLECULAR WEIGHT>
353.183

> <BIOSOLVEIT.MOLECULE_CHECKSUM>
LTE4LjQ0NTQ7MC44MDE5NzQ=

> <BIOSOLVEIT.TORSION_QUALITY range: red, yellow, green, not rotatable>
yellow

> <BIOSOLVEIT.TPSA>
59.81

> <BIOSOLVEIT.SEESAR_FAVORITE>
favorite

> <smc_score>
0.688

> <QED_score>
0.733

> <distance>
0.636

> <SimilarityPheSA_1>
0.631

> <Smiles>
O=C(Cn1ncc2cccnc21)NCc1cc(F)c(Cl)cc1Cl

> <Similarity_SkelSpheres>
0.654

> <Cluster No>
250.0

> <QueryID>
MIC-UNK-91acba05-6

> <SimilarityPheSA>
0.631

> <Postera series>
3-aminopyridine-like

> <PDB_code>
Mpro-x12710, Mpro-P0033

> <Approach>
DGM_focussed_RL

> <ID>
20210618_477

> <SimilarityPheSA_2>
0.801

> <OPTIBRIUM.logD>
2.78741

> <OPTIBRIUM.BBB category>
-

> <OPTIBRIUM.logP>
2.78741

> <OPTIBRIUM.P-gp category>
no

> <OPTIBRIUM.logS>
1.10238

> <OPTIBRIUM.HIA category>
+

> <OPTIBRIUM.PPB90 category>
high

> <OPTIBRIUM.2D6 affinity category>
medium

> <OPTIBRIUM.hERG pIC50>
5.0133

> <OPTIBRIUM.2C9 pKi>
5.37023

> <OPTIBRIUM.BBB log([brain]:[blood])>
-0.38874

> <OPTIBRIUM.logS @ pH7.4>
1.10238

$$$$
Compound 715_1_08
haSeeSAR  07122111353D 1   1.00000     0.00000     0
SeeSAR 11.0.2 hazemaj
 40 43  0  0  0  0            999 V2000
    7.6008    2.2876   24.4245 Cl  0  0  0  0  0  0  0  0  0  0  0  0
    8.1607    1.0188   25.5404 C   0  0  0  0  0  0  0  0  0  0  0  0
    9.0539    0.0429   25.1108 C   0  0  0  0  0  0  0  0  0  0  0  0
    7.6908    1.0174   26.8498 C   0  0  0  0  0  0  0  0  0  0  0  0
    9.4837   -0.9427   25.9931 C   0  0  0  0  0  0  0  0  0  0  0  0
    9.5608    0.0540   23.6775 C   0  0  0  0  0  0  0  0  0  0  0  0
    8.1245    0.0292   27.7276 C   0  0  0  0  0  0  0  0  0  0  0  0
    9.0178   -0.9486   27.3035 C   0  0  0  0  0  0  0  0  0  0  0  0
    8.4379   -0.1857   22.7584 N   0  0  0  0  0  0  0  0  0  0  0  0
    8.1462    0.5491   21.6124 C   0  0  0  0  0  0  0  0  0  0  0  0
    7.4346   -1.2300   22.9638 C   0  0  0  0  0  0  0  0  0  0  0  0
    8.7796    1.5195   21.2399 O   0  0  0  0  0  0  0  0  0  0  0  0
    7.0339   -0.0090   20.9722 N   0  0  0  0  0  0  0  0  0  0  0  0
    6.6098   -1.2181   21.6889 C   0  0  0  0  0  0  0  0  0  0  0  0
    6.4243    0.5008   19.8183 C   0  0  0  0  0  0  0  0  0  0  0  0
    5.2499    1.2499   19.8579 C   0  0  0  0  0  0  0  0  0  0  0  0
    7.0195    0.2457   18.5876 C   0  0  0  0  0  0  0  0  0  0  0  0
    4.6982    1.7259   18.6728 C   0  0  0  0  0  0  0  0  0  0  0  0
    4.5969    1.5462   21.0502 C   0  0  0  0  0  0  0  0  0  0  0  0
    6.4715    0.7138   17.4564 N   0  0  0  0  0  0  0  0  0  0  0  0
    5.3418    1.4365   17.4737 C   0  0  0  0  0  0  0  0  0  0  0  0
    3.5272    2.4762   18.6871 C   0  0  0  0  0  0  0  0  0  0  0  0
    3.4252    2.2956   21.0746 C   0  0  0  0  0  0  0  0  0  0  0  0
    2.8821    2.7670   19.8844 C   0  0  0  0  0  0  0  0  0  0  0  0
    2.6489    2.6316   22.6403 Cl  0  0  0  0  0  0  0  0  0  0  0  0
    7.0482    1.7194   27.1567 H   0  0  0  0  0  0  0  0  0  0  0  0
   10.1260   -1.6450   25.6861 H   0  0  0  0  0  0  0  0  0  0  0  0
   10.2463   -0.6646   23.5608 H   0  0  0  0  0  0  0  0  0  0  0  0
    9.9723    0.9429   23.4763 H   0  0  0  0  0  0  0  0  0  0  0  0
    7.7913    0.0218   28.6704 H   0  0  0  0  0  0  0  0  0  0  0  0
    9.3249   -1.6556   27.9405 H   0  0  0  0  0  0  0  0  0  0  0  0
    6.8629   -1.0203   23.7570 H   0  0  0  0  0  0  0  0  0  0  0  0
    7.8718   -2.1199   23.0939 H   0  0  0  0  0  0  0  0  0  0  0  0
    5.6337   -1.1758   21.9023 H   0  0  0  0  0  0  0  0  0  0  0  0
    6.7962   -2.0344   21.1421 H   0  0  0  0  0  0  0  0  0  0  0  0
    7.8625   -0.2907   18.5456 H   0  0  0  0  0  0  0  0  0  0  0  0
    4.9796    1.2120   21.9114 H   0  0  0  0  0  0  0  0  0  0  0  0
    4.9570    1.7718   16.6138 H   0  0  0  0  0  0  0  0  0  0  0  0
    3.1444    2.8107   17.8259 H   0  0  0  0  0  0  0  0  0  0  0  0
    2.0404    3.3069   19.8894 H   0  0  0  0  0  0  0  0  0  0  0  0
  1  2  1  0  0  0  0
  2  3  2  0  0  0  0
  2  4  1  0  0  0  0
  3  5  1  0  0  0  0
  3  6  1  0  0  0  0
  4  7  2  0  0  0  0
  5  8  2  0  0  0  0
  6  9  1  0  0  0  0
  9 10  1  0  0  0  0
  9 11  1  0  0  0  0
 10 12  2  0  0  0  0
 10 13  1  0  0  0  0
 11 14  1  0  0  0  0
 13 15  1  0  0  0  0
 15 16  1  0  0  0  0
 15 17  2  0  0  0  0
 16 18  1  0  0  0  0
 16 19  2  0  0  0  0
 17 20  1  0  0  0  0
 18 21  1  0  0  0  0
 18 22  2  0  0  0  0
 19 23  1  0  0  0  0
 22 24  1  0  0  0  0
 23 25  1  0  0  0  0
  7  8  1  0  0  0  0
 13 14  1  0  0  0  0
 20 21  2  0  0  0  0
 23 24  2  0  0  0  0
  4 26  1  0  0  0  0
  5 27  1  0  0  0  0
  6 28  1  0  0  0  0
  6 29  1  0  0  0  0
  7 30  1  0  0  0  0
  8 31  1  0  0  0  0
 11 32  1  0  0  0  0
 11 33  1  0  0  0  0
 14 34  1  0  0  0  0
 14 35  1  0  0  0  0
 17 36  1  0  0  0  0
 19 37  1  0  0  0  0
 21 38  1  0  0  0  0
 22 39  1  0  0  0  0
 24 40  1  0  0  0  0
M  END
> <BIOSOLVEIT.HYDE_ESTIMATED_AFFINITY_LOWER_BOUNDARY [nM]>
59356.604580

> <BIOSOLVEIT.HYDE_ESTIMATED_AFFINITY_UPPER_BOUNDARY [nM]>
5897429.609068

> <BIOSOLVEIT.HYDE_LIGAND_EFFICIENCY range: ++, +, 0, -, -->
--

> <BIOSOLVEIT.HYDE_LIGAND_LIPOPHILIC_EFFICIENCY range: ++, +, 0, -, -->
--

> <BIOSOLVEIT.INTER_CLASH range: red, yellow, green>
green

> <BIOSOLVEIT.INTRA_CLASH range: red, yellow, green>
green

> <BIOSOLVEIT.LOGP>
4.9838

> <BIOSOLVEIT.MOLECULAR WEIGHT>
372.254

> <BIOSOLVEIT.MOLECULE_CHECKSUM>
LTE4LjQyNTE7MC43MzcwMDM=

> <BIOSOLVEIT.TORSION_QUALITY range: red, yellow, green, not rotatable>
yellow

> <BIOSOLVEIT.TPSA>
36.44

> <BIOSOLVEIT.SEESAR_FAVORITE>
favorite

> <smc_score>
0.563

> <QED_score>
0.65

> <distance>
0.578

> <SimilarityPheSA_1>
0.766

> <Smiles>
O=C1N(Cc2ccccc2Cl)CCN1c1cncc2ccc(Cl)cc12

> <Similarity_SkelSpheres>
0.732

> <Cluster No>
405.0

> <QueryID>
PET-UNK-c9c1e0d8-3

> <SimilarityPheSA>
0.7662

> <Postera series>
3-aminopyridine-like

> <PDB_code>
Mpro-x12587

> <Approach>
DGM_focussed_RL

> <ID>
20210618_714

> <SimilarityPheSA_2>
0.938

> <OPTIBRIUM.logD>
4.28612

> <OPTIBRIUM.BBB category>
+

> <OPTIBRIUM.logP>
4.28612

> <OPTIBRIUM.P-gp category>
no

> <OPTIBRIUM.logS>
-0.0690537

> <OPTIBRIUM.HIA category>
+

> <OPTIBRIUM.PPB90 category>
high

> <OPTIBRIUM.2D6 affinity category>
medium

> <OPTIBRIUM.hERG pIC50>
5.60476

> <OPTIBRIUM.2C9 pKi>
5.70523

> <OPTIBRIUM.BBB log([brain]:[blood])>
0.0777893

> <OPTIBRIUM.logS @ pH7.4>
-0.0690537

$$$$
Compound 413_1_03
haSeeSAR  07122111353D 1   1.00000     0.00000     0
SeeSAR 11.0.2 hazemaj
 47 50  0  0  0  0            999 V2000
    5.2570   -0.5661   27.0533 Cl  0  0  0  0  0  0  0  0  0  0  0  0
    6.7696   -1.3018   26.4703 C   0  0  0  0  0  0  0  0  0  0  0  0
    7.7527   -0.4939   25.9081 C   0  0  0  0  0  0  0  0  0  0  0  0
    6.9516   -2.6763   26.5825 C   0  0  0  0  0  0  0  0  0  0  0  0
    7.5561    0.8385   25.8085 O   0  0  0  0  0  0  0  0  0  0  0  0
    8.9320   -1.0752   25.4551 C   0  0  0  0  0  0  0  0  0  0  0  0
    8.1388   -3.2365   26.1223 C   0  0  0  0  0  0  0  0  0  0  0  0
    7.8275    1.6813   26.9187 C   0  0  0  0  0  0  0  0  0  0  0  0
    9.1355   -2.4473   25.5574 C   0  0  0  0  0  0  0  0  0  0  0  0
   10.0190   -0.2084   24.8390 C   0  0  0  0  0  0  0  0  0  0  0  0
    8.3819   -4.9943   26.2616 Cl  0  0  0  0  0  0  0  0  0  0  0  0
   10.3398   -0.7569   23.1442 S   0  0  0  0  0  0  0  0  0  0  0  0
   11.2273    0.1750   22.4981 O   0  0  0  0  0  0  0  0  0  0  0  0
   10.9489   -2.0614   23.1690 O   0  0  0  0  0  0  0  0  0  0  0  0
    8.8822   -0.8315   22.2906 N   0  0  0  0  0  0  0  0  0  0  0  0
    8.5092    0.0165   21.2496 C   0  0  0  0  0  0  0  0  0  0  0  0
    7.7937   -1.7812   22.5661 C   0  0  0  0  0  0  0  0  0  0  0  0
    9.1878    0.9582   20.8482 O   0  0  0  0  0  0  0  0  0  0  0  0
    7.2668   -0.3546   20.7432 N   0  0  0  0  0  0  0  0  0  0  0  0
    6.8097   -1.5632   21.4336 C   0  0  0  0  0  0  0  0  0  0  0  0
    6.5605    0.3074   19.7298 C   0  0  0  0  0  0  0  0  0  0  0  0
    7.0462    0.2422   18.4294 C   0  0  0  0  0  0  0  0  0  0  0  0
    5.3930    1.0260   19.9753 C   0  0  0  0  0  0  0  0  0  0  0  0
    8.1612   -0.4474   18.2126 F   0  0  0  0  0  0  0  0  0  0  0  0
    6.3992    0.8611   17.4302 N   0  0  0  0  0  0  0  0  0  0  0  0
    4.7352    1.6624   18.9267 C   0  0  0  0  0  0  0  0  0  0  0  0
    4.8543    1.1291   21.2555 C   0  0  0  0  0  0  0  0  0  0  0  0
    5.2740    1.5578   17.6484 C   0  0  0  0  0  0  0  0  0  0  0  0
    3.5674    2.3858   19.1460 C   0  0  0  0  0  0  0  0  0  0  0  0
    3.6888    1.8458   21.5029 C   0  0  0  0  0  0  0  0  0  0  0  0
    3.0528    2.4713   20.4358 C   0  0  0  0  0  0  0  0  0  0  0  0
    6.2411   -3.2519   26.9873 H   0  0  0  0  0  0  0  0  0  0  0  0
    7.6288    2.6300   26.6734 H   0  0  0  0  0  0  0  0  0  0  0  0
    7.2540    1.4095   27.6915 H   0  0  0  0  0  0  0  0  0  0  0  0
    8.7910    1.5975   27.1731 H   0  0  0  0  0  0  0  0  0  0  0  0
    9.9853   -2.8603   25.2299 H   0  0  0  0  0  0  0  0  0  0  0  0
   10.8564   -0.2895   25.3797 H   0  0  0  0  0  0  0  0  0  0  0  0
    9.7193    0.7455   24.8296 H   0  0  0  0  0  0  0  0  0  0  0  0
    7.3669   -1.5843   23.4489 H   0  0  0  0  0  0  0  0  0  0  0  0
    8.1346   -2.7212   22.5631 H   0  0  0  0  0  0  0  0  0  0  0  0
    5.8862   -1.4316   21.7939 H   0  0  0  0  0  0  0  0  0  0  0  0
    6.8160   -2.3452   20.8103 H   0  0  0  0  0  0  0  0  0  0  0  0
    5.3179    0.6756   22.0168 H   0  0  0  0  0  0  0  0  0  0  0  0
    4.8162    2.0081   16.8818 H   0  0  0  0  0  0  0  0  0  0  0  0
    3.1031    2.8393   18.3853 H   0  0  0  0  0  0  0  0  0  0  0  0
    3.3159    1.9103   22.4285 H   0  0  0  0  0  0  0  0  0  0  0  0
    2.2133    2.9900   20.5980 H   0  0  0  0  0  0  0  0  0  0  0  0
  1  2  1  0  0  0  0
  2  3  2  0  0  0  0
  2  4  1  0  0  0  0
  3  5  1  0  0  0  0
  3  6  1  0  0  0  0
  4  7  2  0  0  0  0
  5  8  1  0  0  0  0
  6  9  2  0  0  0  0
  6 10  1  0  0  0  0
  7 11  1  0  0  0  0
 10 12  1  0  0  0  0
 12 13  2  0  0  0  0
 12 14  2  0  0  0  0
 12 15  1  0  0  0  0
 15 16  1  0  0  0  0
 15 17  1  0  0  0  0
 16 18  2  0  0  0  0
 16 19  1  0  0  0  0
 17 20  1  0  0  0  0
 19 21  1  0  0  0  0
 21 22  2  0  0  0  0
 21 23  1  0  0  0  0
 22 24  1  0  0  0  0
 22 25  1  0  0  0  0
 23 26  1  0  0  0  0
 23 27  2  0  0  0  0
 25 28  2  0  0  0  0
 26 29  2  0  0  0  0
 27 30  1  0  0  0  0
 29 31  1  0  0  0  0
  7  9  1  0  0  0  0
 19 20  1  0  0  0  0
 26 28  1  0  0  0  0
 30 31  2  0  0  0  0
  4 32  1  0  0  0  0
  8 33  1  0  0  0  0
  8 34  1  0  0  0  0
  8 35  1  0  0  0  0
  9 36  1  0  0  0  0
 10 37  1  0  0  0  0
 10 38  1  0  0  0  0
 17 39  1  0  0  0  0
 17 40  1  0  0  0  0
 20 41  1  0  0  0  0
 20 42  1  0  0  0  0
 27 43  1  0  0  0  0
 28 44  1  0  0  0  0
 29 45  1  0  0  0  0
 30 46  1  0  0  0  0
 31 47  1  0  0  0  0
M  END
> <BIOSOLVEIT.HYDE_ESTIMATED_AFFINITY_LOWER_BOUNDARY [nM]>
61125.299602

> <BIOSOLVEIT.HYDE_ESTIMATED_AFFINITY_UPPER_BOUNDARY [nM]>
6073159.916858

> <BIOSOLVEIT.HYDE_LIGAND_EFFICIENCY range: ++, +, 0, -, -->
--

> <BIOSOLVEIT.HYDE_LIGAND_LIPOPHILIC_EFFICIENCY range: ++, +, 0, -, -->
--

> <BIOSOLVEIT.INTER_CLASH range: red, yellow, green>
green

> <BIOSOLVEIT.INTRA_CLASH range: red, yellow, green>
green

> <BIOSOLVEIT.LOGP>
5.1119

> <BIOSOLVEIT.MOLECULAR WEIGHT>
484.332

> <BIOSOLVEIT.MOLECULE_CHECKSUM>
LTE4LjM1MjM7MC41OTIwMDk=

> <BIOSOLVEIT.TORSION_QUALITY range: red, yellow, green, not rotatable>
green

> <BIOSOLVEIT.TPSA>
79.81

> <BIOSOLVEIT.SEESAR_FAVORITE>
favorite

> <smc_score>
0.75

> <QED_score>
0.5

> <distance>
0.655

> <SimilarityPheSA_1>
0.638

> <Smiles>
COc1c(Cl)cc(Cl)cc1CS(=O)(=O)N1CCN(c2c(F)ncc3ccccc23)C1=O

> <Similarity_SkelSpheres>
0.701

> <Cluster No>
211.0

> <QueryID>
PET-UNK-c9c1e0d8-3

> <SimilarityPheSA>
0.6376

> <Postera series>
3-aminopyridine-like

> <PDB_code>
Mpro-x12587

> <Approach>
DGM_focussed_RL

> <ID>
20210618_412

> <SimilarityPheSA_2>
0.729

> <OPTIBRIUM.logD>
3.2737

> <OPTIBRIUM.BBB category>
-

> <OPTIBRIUM.logP>
3.2737

> <OPTIBRIUM.P-gp category>
yes

> <OPTIBRIUM.logS>
-0.435268

> <OPTIBRIUM.HIA category>
+

> <OPTIBRIUM.PPB90 category>
high

> <OPTIBRIUM.2D6 affinity category>
medium

> <OPTIBRIUM.hERG pIC50>
5.81388

> <OPTIBRIUM.2C9 pKi>
5.97686

> <OPTIBRIUM.BBB log([brain]:[blood])>
-0.733853

> <OPTIBRIUM.logS @ pH7.4>
-0.435268

$$$$
Compound 654_1_5
haSeeSAR  07122111353D 1   1.00000     0.00000     0
SeeSAR 11.0.2 hazemaj
 43 46  0  0  0  0            999 V2000
   -0.7369   -0.1537   22.3167 Cl  0  0  0  0  0  0  0  0  0  0  0  0
    0.4218    1.1311   22.7313 C   0  0  0  0  0  0  0  0  0  0  0  0
    1.0531    1.8257   21.7081 C   0  0  0  0  0  0  0  0  0  0  0  0
    0.6660    1.4144   24.0694 C   0  0  0  0  0  0  0  0  0  0  0  0
    0.9851    1.7557   20.3699 O   0  0  0  0  0  0  0  0  0  0  0  0
    1.9294    2.8054   22.1022 C   0  0  0  0  0  0  0  0  0  0  0  0
    1.5642    2.4142   24.4269 C   0  0  0  0  0  0  0  0  0  0  0  0
    1.3891    3.0213   19.8901 C   0  0  0  0  0  0  0  0  0  0  0  0
    2.2110    3.1276   23.4244 C   0  0  0  0  0  0  0  0  0  0  0  0
    2.4898    3.4268   20.8430 C   0  0  2  0  0  0  0  0  0  0  0  0
    1.8939    2.7869   26.1357 Cl  0  0  0  0  0  0  0  0  0  0  0  0
    3.8200    2.8054   20.4495 C   0  0  0  0  0  0  0  0  0  0  0  0
    4.8718    3.2794   20.8790 O   0  0  0  0  0  0  0  0  0  0  0  0
    3.8474    1.7552   19.6454 N   0  0  0  0  0  0  0  0  0  0  0  0
    5.0721    1.1831   19.2831 C   0  0  0  0  0  0  0  0  0  0  0  0
    5.8704    0.6208   20.2701 C   0  0  0  0  0  0  0  0  0  0  0  0
    5.5124    1.1697   17.9641 C   0  0  0  0  0  0  0  0  0  0  0  0
    7.0745    0.0476   19.9513 C   0  0  0  0  0  0  0  0  0  0  0  0
    5.6877    0.5076   21.7696 C   0  0  0  0  0  0  0  0  0  0  0  0
    6.6960    0.6116   17.6687 N   0  0  0  0  0  0  0  0  0  0  0  0
    7.6826   -0.4289   21.1166 N   0  0  0  0  0  0  0  0  0  0  0  0
    7.4699    0.0600   18.6165 C   0  0  0  0  0  0  0  0  0  0  0  0
    6.6495   -0.5959   22.1349 C   0  0  0  0  0  0  0  0  0  0  0  0
    9.1188   -0.6841   21.3042 C   0  0  0  0  0  0  0  0  0  0  0  0
    9.7687    0.5288   21.9498 C   0  0  0  0  0  0  0  0  0  0  0  0
    9.4842    1.6856   21.1770 O   0  0  0  0  0  0  0  0  0  0  0  0
    0.1922    0.8954   24.7809 H   0  0  0  0  0  0  0  0  0  0  0  0
    0.6316    3.6734   19.9210 H   0  0  0  0  0  0  0  0  0  0  0  0
    1.7338    2.9549   18.9538 H   0  0  0  0  0  0  0  0  0  0  0  0
    2.8615    3.8533   23.6486 H   0  0  0  0  0  0  0  0  0  0  0  0
    2.5583    4.4212   20.9233 H   0  0  0  0  0  0  0  0  0  0  0  0
    2.9930    1.3702   19.2965 H   0  0  0  0  0  0  0  0  0  0  0  0
    4.9511    1.5731   17.2414 H   0  0  0  0  0  0  0  0  0  0  0  0
    4.7474    0.2585   22.0011 H   0  0  0  0  0  0  0  0  0  0  0  0
    5.9284    1.3630   22.2283 H   0  0  0  0  0  0  0  0  0  0  0  0
    8.3455   -0.3490   18.3595 H   0  0  0  0  0  0  0  0  0  0  0  0
    6.2157   -1.4948   22.0714 H   0  0  0  0  0  0  0  0  0  0  0  0
    7.0195   -0.4686   23.0552 H   0  0  0  0  0  0  0  0  0  0  0  0
    9.5452   -0.8579   20.4166 H   0  0  0  0  0  0  0  0  0  0  0  0
    9.2411   -1.4818   21.8948 H   0  0  0  0  0  0  0  0  0  0  0  0
   10.7585    0.3927   21.9940 H   0  0  0  0  0  0  0  0  0  0  0  0
    9.4071    0.6483   22.8743 H   0  0  0  0  0  0  0  0  0  0  0  0
    8.6867    2.1532   21.5581 H   0  0  0  0  0  0  0  0  0  0  0  0
  1  2  1  0  0  0  0
  2  3  2  0  0  0  0
  2  4  1  0  0  0  0
  3  5  1  0  0  0  0
  3  6  1  0  0  0  0
  4  7  2  0  0  0  0
  5  8  1  0  0  0  0
  6  9  2  0  0  0  0
  6 10  1  0  0  0  0
  7 11  1  0  0  0  0
 10 12  1  0  0  0  0
 12 13  2  0  0  0  0
 12 14  1  0  0  0  0
 14 15  1  0  0  0  0
 15 16  2  0  0  0  0
 15 17  1  0  0  0  0
 16 18  1  0  0  0  0
 16 19  1  0  0  0  0
 17 20  2  0  0  0  0
 18 21  1  0  0  0  0
 18 22  2  0  0  0  0
 19 23  1  0  0  0  0
 21 24  1  0  0  0  0
 24 25  1  0  0  0  0
 25 26  1  0  0  0  0
  7  9  1  0  0  0  0
  8 10  1  0  0  0  0
 20 22  1  0  0  0  0
 21 23  1  0  0  0  0
  4 27  1  0  0  0  0
  8 28  1  0  0  0  0
  8 29  1  0  0  0  0
  9 30  1  0  0  0  0
 10 31  1  0  0  0  0
 14 32  1  0  0  0  0
 17 33  1  0  0  0  0
 19 34  1  0  0  0  0
 19 35  1  0  0  0  0
 22 36  1  0  0  0  0
 23 37  1  0  0  0  0
 23 38  1  0  0  0  0
 24 39  1  0  0  0  0
 24 40  1  0  0  0  0
 25 41  1  0  0  0  0
 25 42  1  0  0  0  0
 26 43  1  0  0  0  0
M  END
> <BIOSOLVEIT.HYDE_ESTIMATED_AFFINITY_LOWER_BOUNDARY [nM]>
67172.220721

> <BIOSOLVEIT.HYDE_ESTIMATED_AFFINITY_UPPER_BOUNDARY [nM]>
6673957.282270

> <BIOSOLVEIT.HYDE_LIGAND_EFFICIENCY range: ++, +, 0, -, -->
--

> <BIOSOLVEIT.HYDE_LIGAND_LIPOPHILIC_EFFICIENCY range: ++, +, 0, -, -->
--

> <BIOSOLVEIT.INTER_CLASH range: red, yellow, green>
green

> <BIOSOLVEIT.INTRA_CLASH range: red, yellow, green>
green

> <BIOSOLVEIT.LOGP>
2.8579

> <BIOSOLVEIT.MOLECULAR WEIGHT>
394.256

> <BIOSOLVEIT.MOLECULE_CHECKSUM>
LTE4LjExODQ7MC42OTY4NjM=

> <BIOSOLVEIT.TORSION_QUALITY range: red, yellow, green, not rotatable>
green

> <BIOSOLVEIT.TPSA>
74.69

> <BIOSOLVEIT.SEESAR_FAVORITE>
favorite

> <smc_score>
1.0

> <QED_score>
0.834

> <distance>
0.529

> <SimilarityPheSA_1>
0.633

> <Smiles>
O=C(Nc1cncc2c1CCN2CCO)C1COc2c(Cl)cc(Cl)cc21

> <Similarity_SkelSpheres>
0.667

> <Cluster No>
362.0

> <QueryID>
JAN-GHE-5a013bed-2

> <SimilarityPheSA>
0.6332

> <Postera series>
3-aminopyridine-like

> <PDB_code>
Mpro-x10466

> <Approach>
DGM_focussed_RL

> <ID>
20210618_653

> <SimilarityPheSA_2>
0.83

> <OPTIBRIUM.logD>
2.4757

> <OPTIBRIUM.BBB category>
-

> <OPTIBRIUM.logP>
2.37755

> <OPTIBRIUM.P-gp category>
yes

> <OPTIBRIUM.logS>
2.72988

> <OPTIBRIUM.HIA category>
+

> <OPTIBRIUM.PPB90 category>
high

> <OPTIBRIUM.2D6 affinity category>
high

> <OPTIBRIUM.hERG pIC50>
4.66766

> <OPTIBRIUM.2C9 pKi>
5.65482

> <OPTIBRIUM.BBB log([brain]:[blood])>
-0.349616

> <OPTIBRIUM.logS @ pH7.4>
0.738522

$$$$
Compound 330_1_05
haSeeSAR  07122111353D 1   1.00000     0.00000     0
SeeSAR 11.0.2 hazemaj
 47 50  0  0  0  0            999 V2000
    7.4937    4.3009   31.3740 Cl  0  0  0  0  0  0  0  0  0  0  0  0
    7.8692    3.2098   30.0181 C   0  0  0  0  0  0  0  0  0  0  0  0
    8.6797    2.0985   30.2235 C   0  0  0  0  0  0  0  0  0  0  0  0
    7.3444    3.4790   28.7593 C   0  0  0  0  0  0  0  0  0  0  0  0
    9.3398    1.7768   31.8449 Cl  0  0  0  0  0  0  0  0  0  0  0  0
    8.9781    1.2384   29.1714 C   0  0  0  0  0  0  0  0  0  0  0  0
    7.6464    2.6165   27.7115 C   0  0  0  0  0  0  0  0  0  0  0  0
    8.4567    1.5036   27.9096 C   0  0  0  0  0  0  0  0  0  0  0  0
    7.0806    2.8950   26.3281 C   0  0  0  0  0  0  0  0  0  0  0  0
    7.2279    1.6996   25.4896 N   0  0  0  0  0  0  0  0  0  0  0  0
    8.1428    1.5721   24.4494 C   0  0  0  0  0  0  0  0  0  0  0  0
    6.4304    0.4653   25.5822 C   0  0  0  0  0  0  0  0  0  0  0  0
    8.8947    2.4711   24.1014 O   0  0  0  0  0  0  0  0  0  0  0  0
    8.0765    0.2926   23.8815 N   0  0  0  0  0  0  0  0  0  0  0  0
    7.1105   -0.5091   24.6420 C   0  0  0  0  0  0  0  0  0  0  0  0
    8.8721   -0.1701   22.7310 C   0  0  0  0  0  0  0  0  0  0  0  0
    8.2603    0.3618   21.4452 C   0  0  0  0  0  0  0  0  0  0  0  0
    8.8201    1.2662   20.8254 O   0  0  0  0  0  0  0  0  0  0  0  0
    7.1262   -0.1472   20.9923 N   0  0  0  0  0  0  0  0  0  0  0  0
    6.5618    0.3436   19.8059 C   0  0  0  0  0  0  0  0  0  0  0  0
    5.3959    1.1071   19.8626 C   0  0  0  0  0  0  0  0  0  0  0  0
    7.1397    0.0792   18.5676 C   0  0  0  0  0  0  0  0  0  0  0  0
    4.8156    1.6185   18.7166 C   0  0  0  0  0  0  0  0  0  0  0  0
    4.5448    1.5242   21.0414 C   0  0  0  0  0  0  0  0  0  0  0  0
    6.5641    0.5652   17.4562 N   0  0  0  0  0  0  0  0  0  0  0  0
    3.6759    2.3435   19.0759 N   0  0  0  0  0  0  0  0  0  0  0  0
    5.4469    1.3108   17.5125 C   0  0  0  0  0  0  0  0  0  0  0  0
    3.7641    2.6929   20.4981 C   0  0  0  0  0  0  0  0  0  0  0  0
    6.7611    4.2775   28.6103 H   0  0  0  0  0  0  0  0  0  0  0  0
    9.5605    0.4393   29.3205 H   0  0  0  0  0  0  0  0  0  0  0  0
    8.6643    0.8940   27.1446 H   0  0  0  0  0  0  0  0  0  0  0  0
    7.5769    3.6571   25.9123 H   0  0  0  0  0  0  0  0  0  0  0  0
    6.1119    3.1307   26.4054 H   0  0  0  0  0  0  0  0  0  0  0  0
    5.4878    0.6329   25.2938 H   0  0  0  0  0  0  0  0  0  0  0  0
    6.4350    0.1128   26.5181 H   0  0  0  0  0  0  0  0  0  0  0  0
    6.4416   -0.9268   24.0271 H   0  0  0  0  0  0  0  0  0  0  0  0
    7.5801   -1.2246   25.1593 H   0  0  0  0  0  0  0  0  0  0  0  0
    8.8767   -1.1698   22.7093 H   0  0  0  0  0  0  0  0  0  0  0  0
    9.8100    0.1657   22.8177 H   0  0  0  0  0  0  0  0  0  0  0  0
    6.6716   -0.8819   21.4958 H   0  0  0  0  0  0  0  0  0  0  0  0
    7.9750   -0.4670   18.5063 H   0  0  0  0  0  0  0  0  0  0  0  0
    5.1138    1.8008   21.8158 H   0  0  0  0  0  0  0  0  0  0  0  0
    3.9345    0.7841   21.3238 H   0  0  0  0  0  0  0  0  0  0  0  0
    2.9230    2.5845   18.4634 H   0  0  0  0  0  0  0  0  0  0  0  0
    5.0548    1.6570   16.6602 H   0  0  0  0  0  0  0  0  0  0  0  0
    4.2529    3.5547   20.6338 H   0  0  0  0  0  0  0  0  0  0  0  0
    2.8580    2.7543   20.9168 H   0  0  0  0  0  0  0  0  0  0  0  0
  1  2  1  0  0  0  0
  2  3  2  0  0  0  0
  2  4  1  0  0  0  0
  3  5  1  0  0  0  0
  3  6  1  0  0  0  0
  4  7  2  0  0  0  0
  6  8  2  0  0  0  0
  7  9  1  0  0  0  0
  9 10  1  0  0  0  0
 10 11  1  0  0  0  0
 10 12  1  0  0  0  0
 11 13  2  0  0  0  0
 11 14  1  0  0  0  0
 12 15  1  0  0  0  0
 14 16  1  0  0  0  0
 16 17  1  0  0  0  0
 17 18  2  0  0  0  0
 17 19  1  0  0  0  0
 19 20  1  0  0  0  0
 20 21  2  0  0  0  0
 20 22  1  0  0  0  0
 21 23  1  0  0  0  0
 21 24  1  0  0  0  0
 22 25  2  0  0  0  0
 23 26  1  0  0  0  0
 23 27  2  0  0  0  0
 24 28  1  0  0  0  0
  7  8  1  0  0  0  0
 14 15  1  0  0  0  0
 25 27  1  0  0  0  0
 26 28  1  0  0  0  0
  4 29  1  0  0  0  0
  6 30  1  0  0  0  0
  8 31  1  0  0  0  0
  9 32  1  0  0  0  0
  9 33  1  0  0  0  0
 12 34  1  0  0  0  0
 12 35  1  0  0  0  0
 15 36  1  0  0  0  0
 15 37  1  0  0  0  0
 16 38  1  0  0  0  0
 16 39  1  0  0  0  0
 19 40  1  0  0  0  0
 22 41  1  0  0  0  0
 24 42  1  0  0  0  0
 24 43  1  0  0  0  0
 26 44  1  0  0  0  0
 27 45  1  0  0  0  0
 28 46  1  0  0  0  0
 28 47  1  0  0  0  0
M  END
> <BIOSOLVEIT.HYDE_ESTIMATED_AFFINITY_LOWER_BOUNDARY [nM]>
67628.435020

> <BIOSOLVEIT.HYDE_ESTIMATED_AFFINITY_UPPER_BOUNDARY [nM]>
6719284.870147

> <BIOSOLVEIT.HYDE_LIGAND_EFFICIENCY range: ++, +, 0, -, -->
--

> <BIOSOLVEIT.HYDE_LIGAND_LIPOPHILIC_EFFICIENCY range: ++, +, 0, -, -->
--

> <BIOSOLVEIT.INTER_CLASH range: red, yellow, green>
green

> <BIOSOLVEIT.INTRA_CLASH range: red, yellow, green>
green

> <BIOSOLVEIT.LOGP>
3.2327

> <BIOSOLVEIT.MOLECULAR WEIGHT>
420.298

> <BIOSOLVEIT.MOLECULE_CHECKSUM>
LTE4LjEwMTc7MC42NDY0ODg=

> <BIOSOLVEIT.TORSION_QUALITY range: red, yellow, green, not rotatable>
green

> <BIOSOLVEIT.TPSA>
77.57

> <BIOSOLVEIT.SEESAR_FAVORITE>
favorite

> <smc_score>
0.875

> <QED_score>
0.779

> <distance>
0.522

> <SimilarityPheSA_1>
0.664

> <Smiles>
O=C(CN1CCN(Cc2ccc(Cl)c(Cl)c2)C1=O)Nc1cncc2c1CCN2

> <Similarity_SkelSpheres>
0.672

> <Cluster No>
165.0

> <QueryID>
PET-UNK-c9c1e0d8-3

> <SimilarityPheSA>
0.6641

> <Postera series>
3-aminopyridine-like

> <PDB_code>
Mpro-x12587

> <Approach>
DGM_focussed_RL

> <ID>
20210618_329

> <SimilarityPheSA_2>
0.672

> <OPTIBRIUM.logD>
2.24858

> <OPTIBRIUM.BBB category>
-

> <OPTIBRIUM.logP>
2.16387

> <OPTIBRIUM.P-gp category>
yes

> <OPTIBRIUM.logS>
2.07129

> <OPTIBRIUM.HIA category>
+

> <OPTIBRIUM.PPB90 category>
high

> <OPTIBRIUM.2D6 affinity category>
medium

> <OPTIBRIUM.hERG pIC50>
4.78816

> <OPTIBRIUM.2C9 pKi>
5.63938

> <OPTIBRIUM.BBB log([brain]:[blood])>
-0.305901

> <OPTIBRIUM.logS @ pH7.4>
1.5639

$$$$
Compound 459_1_06
haSeeSAR  07122111353D 1   1.00000     0.00000     0
SeeSAR 11.0.2 hazemaj
 41 43  0  0  0  0            999 V2000
    6.7655    2.6519   27.6674 Cl  0  0  0  0  0  0  0  0  0  0  0  0
    7.6344    1.2561   26.9848 C   0  0  0  0  0  0  0  0  0  0  0  0
    8.0981    1.3114   25.6745 C   0  0  0  0  0  0  0  0  0  0  0  0
    7.8392    0.1254   27.7687 C   0  0  0  0  0  0  0  0  0  0  0  0
    7.8888    2.4187   24.9303 O   0  0  0  0  0  0  0  0  0  0  0  0
    8.7764    0.2174   25.1477 C   0  0  0  0  0  0  0  0  0  0  0  0
    8.5195   -0.9574   27.2213 C   0  0  0  0  0  0  0  0  0  0  0  0
    6.6302    2.6275   24.3067 C   0  0  0  0  0  0  0  0  0  0  0  0
    8.9926   -0.9234   25.9135 C   0  0  0  0  0  0  0  0  0  0  0  0
    9.2924    0.2595   23.7179 C   0  0  0  0  0  0  0  0  0  0  0  0
    8.7873   -2.4090   28.2161 Cl  0  0  0  0  0  0  0  0  0  0  0  0
    8.1747    0.0535   22.7880 N   0  0  0  0  0  0  0  0  0  0  0  0
    8.0161    0.6763   21.5521 C   0  0  0  0  0  0  0  0  0  0  0  0
    7.0277   -0.8265   23.0580 C   0  0  0  0  0  0  0  0  0  0  0  0
    8.7676    1.5286   21.0880 O   0  0  0  0  0  0  0  0  0  0  0  0
    6.8779    0.1800   20.9265 N   0  0  0  0  0  0  0  0  0  0  0  0
    6.2890   -0.8910   21.7326 C   0  0  0  0  0  0  0  0  0  0  0  0
    6.3790    0.6185   19.6938 C   0  0  0  0  0  0  0  0  0  0  0  0
    5.1471    1.2595   19.6163 C   0  0  0  0  0  0  0  0  0  0  0  0
    7.0982    0.4252   18.5189 C   0  0  0  0  0  0  0  0  0  0  0  0
    4.4365    1.4537   20.7487 O   0  0  0  0  0  0  0  0  0  0  0  0
    4.6959    1.6683   18.4204 N   0  0  0  0  0  0  0  0  0  0  0  0
    6.5938    0.8567   17.3537 N   0  0  0  0  0  0  0  0  0  0  0  0
    3.1777    2.1085   20.6934 C   0  0  0  0  0  0  0  0  0  0  0  0
    5.4040    1.4732   17.2975 C   0  0  0  0  0  0  0  0  0  0  0  0
    7.5031    0.0914   28.7100 H   0  0  0  0  0  0  0  0  0  0  0  0
    6.6485    3.4891   23.7993 H   0  0  0  0  0  0  0  0  0  0  0  0
    6.4411    1.8740   23.6771 H   0  0  0  0  0  0  0  0  0  0  0  0
    5.9150    2.6666   25.0044 H   0  0  0  0  0  0  0  0  0  0  0  0
    9.4807   -1.7073   25.5297 H   0  0  0  0  0  0  0  0  0  0  0  0
    9.9720   -0.4625   23.5874 H   0  0  0  0  0  0  0  0  0  0  0  0
    9.7131    1.1493   23.5414 H   0  0  0  0  0  0  0  0  0  0  0  0
    6.4436   -0.4394   23.7713 H   0  0  0  0  0  0  0  0  0  0  0  0
    7.3362   -1.7360   23.3369 H   0  0  0  0  0  0  0  0  0  0  0  0
    5.3105   -0.7346   21.8663 H   0  0  0  0  0  0  0  0  0  0  0  0
    6.4278   -1.7792   21.2944 H   0  0  0  0  0  0  0  0  0  0  0  0
    7.9868   -0.0329   18.5431 H   0  0  0  0  0  0  0  0  0  0  0  0
    2.7921    2.1678   21.6143 H   0  0  0  0  0  0  0  0  0  0  0  0
    3.2970    3.0293   20.3221 H   0  0  0  0  0  0  0  0  0  0  0  0
    2.5575    1.5896   20.1052 H   0  0  0  0  0  0  0  0  0  0  0  0
    5.0446    1.7874   16.4188 H   0  0  0  0  0  0  0  0  0  0  0  0
  1  2  1  0  0  0  0
  2  3  2  0  0  0  0
  2  4  1  0  0  0  0
  3  5  1  0  0  0  0
  3  6  1  0  0  0  0
  4  7  2  0  0  0  0
  5  8  1  0  0  0  0
  6  9  2  0  0  0  0
  6 10  1  0  0  0  0
  7 11  1  0  0  0  0
 10 12  1  0  0  0  0
 12 13  1  0  0  0  0
 12 14  1  0  0  0  0
 13 15  2  0  0  0  0
 13 16  1  0  0  0  0
 14 17  1  0  0  0  0
 16 18  1  0  0  0  0
 18 19  2  0  0  0  0
 18 20  1  0  0  0  0
 19 21  1  0  0  0  0
 19 22  1  0  0  0  0
 20 23  2  0  0  0  0
 21 24  1  0  0  0  0
 22 25  2  0  0  0  0
  7  9  1  0  0  0  0
 16 17  1  0  0  0  0
 23 25  1  0  0  0  0
  4 26  1  0  0  0  0
  8 27  1  0  0  0  0
  8 28  1  0  0  0  0
  8 29  1  0  0  0  0
  9 30  1  0  0  0  0
 10 31  1  0  0  0  0
 10 32  1  0  0  0  0
 14 33  1  0  0  0  0
 14 34  1  0  0  0  0
 17 35  1  0  0  0  0
 17 36  1  0  0  0  0
 20 37  1  0  0  0  0
 24 38  1  0  0  0  0
 24 39  1  0  0  0  0
 24 40  1  0  0  0  0
 25 41  1  0  0  0  0
M  END
> <BIOSOLVEIT.HYDE_ESTIMATED_AFFINITY_LOWER_BOUNDARY [nM]>
68224.186871

> <BIOSOLVEIT.HYDE_ESTIMATED_AFFINITY_UPPER_BOUNDARY [nM]>
6778476.338901

> <BIOSOLVEIT.HYDE_LIGAND_EFFICIENCY range: ++, +, 0, -, -->
--

> <BIOSOLVEIT.HYDE_LIGAND_LIPOPHILIC_EFFICIENCY range: ++, +, 0, -, -->
--

> <BIOSOLVEIT.INTER_CLASH range: red, yellow, green>
green

> <BIOSOLVEIT.INTRA_CLASH range: red, yellow, green>
green

> <BIOSOLVEIT.LOGP>
3.2428

> <BIOSOLVEIT.MOLECULAR WEIGHT>
383.233

> <BIOSOLVEIT.MOLECULE_CHECKSUM>
LTE4LjA3OTk7MC43MjMxOTc=

> <BIOSOLVEIT.TORSION_QUALITY range: red, yellow, green, not rotatable>
yellow

> <BIOSOLVEIT.TPSA>
67.79

> <BIOSOLVEIT.SEESAR_FAVORITE>
favorite

> <smc_score>
0.688

> <QED_score>
0.793

> <distance>
0.684

> <SimilarityPheSA_1>
0.657

> <Smiles>
COc1ncncc1N1CCN(Cc2cc(Cl)cc(Cl)c2OC)C1=O

> <Similarity_SkelSpheres>
0.676

> <Cluster No>
241.0

> <QueryID>
MAT-POS-b3e365b9-1, VLA-UCB-1dbca3b4-15

> <SimilarityPheSA>
0.6569

> <Postera series>
3-aminopyridine-like

> <PDB_code>
Mpro-x11612, Mpro-x11498

> <Approach>
DGM_focussed_RL

> <ID>
20210618_458

> <SimilarityPheSA_2>
0.762

> <OPTIBRIUM.logD>
3.60905

> <OPTIBRIUM.BBB category>
-

> <OPTIBRIUM.logP>
3.60905

> <OPTIBRIUM.P-gp category>
no

> <OPTIBRIUM.logS>
1.08394

> <OPTIBRIUM.HIA category>
+

> <OPTIBRIUM.PPB90 category>
high

> <OPTIBRIUM.2D6 affinity category>
medium

> <OPTIBRIUM.hERG pIC50>
5.16854

> <OPTIBRIUM.2C9 pKi>
5.55004

> <OPTIBRIUM.BBB log([brain]:[blood])>
0.140329

> <OPTIBRIUM.logS @ pH7.4>
1.08394

$$$$
Compound 428_1_4
haSeeSAR  07122111353D 1   1.00000     0.00000     0
SeeSAR 11.0.2 hazemaj
 48 52  0  0  0  0            999 V2000
    9.0799   -2.0675   27.3991 Cl  0  0  0  0  0  0  0  0  0  0  0  0
    8.4495   -2.2068   25.7404 C   0  0  0  0  0  0  0  0  0  0  0  0
    7.6392   -3.2910   25.4096 C   0  0  0  0  0  0  0  0  0  0  0  0
    8.7438   -1.2443   24.7795 C   0  0  0  0  0  0  0  0  0  0  0  0
    7.2194   -4.5425   26.6071 Cl  0  0  0  0  0  0  0  0  0  0  0  0
    7.1518   -3.3934   24.1093 C   0  0  0  0  0  0  0  0  0  0  0  0
    8.2768   -1.3273   23.4811 C   0  0  0  0  0  0  0  0  0  0  0  0
    9.5621    0.0314   24.8896 C   0  0  0  0  0  0  0  0  0  0  0  0
    7.4737   -2.4211   23.1676 C   0  0  0  0  0  0  0  0  0  0  0  0
    8.7581   -0.2403   22.7481 N   0  0  0  0  0  0  0  0  0  0  0  0
    9.9104    0.3216   23.4478 C   0  0  0  0  0  0  0  0  0  0  0  0
    6.9721   -2.5847   21.9259 O   0  0  0  0  0  0  0  0  0  0  0  0
    8.2100    0.2732   21.5630 C   0  0  0  0  0  0  0  0  0  0  0  0
    6.3708   -3.8181   21.5600 C   0  0  0  0  0  0  0  0  0  0  0  0
    8.8175    1.0878   20.9246 O   0  0  0  0  0  0  0  0  0  0  0  0
    6.9813   -0.1553   21.1345 N   0  0  0  0  0  0  0  0  0  0  0  0
    6.4340    0.3575   19.9511 C   0  0  0  0  0  0  0  0  0  0  0  0
    5.2829    1.1423   19.9325 C   0  0  0  0  0  0  0  0  0  0  0  0
    7.0710    0.0678   18.7489 C   0  0  0  0  0  0  0  0  0  0  0  0
    4.7948    1.6179   18.7195 C   0  0  0  0  0  0  0  0  0  0  0  0
    4.5923    1.4752   21.0941 C   0  0  0  0  0  0  0  0  0  0  0  0
    6.5843    0.5354   17.5900 N   0  0  0  0  0  0  0  0  0  0  0  0
    5.4778    1.2920   17.5523 C   0  0  0  0  0  0  0  0  0  0  0  0
    3.6481    2.4042   18.6768 C   0  0  0  0  0  0  0  0  0  0  0  0
    3.4456    2.2590   21.0587 C   0  0  0  0  0  0  0  0  0  0  0  0
    2.9644    2.7310   19.8432 C   0  0  0  0  0  0  0  0  0  0  0  0
    2.7379    2.5868   22.3630 C   0  0  0  0  0  0  0  0  0  0  0  0
    1.3248    2.0814   22.3495 C   0  0  0  0  0  0  0  0  0  0  0  0
    1.5993    3.5472   22.1723 C   0  0  0  0  0  0  0  0  0  0  0  0
    6.5705   -4.1654   23.8525 H   0  0  0  0  0  0  0  0  0  0  0  0
   10.3855   -0.1135   25.4382 H   0  0  0  0  0  0  0  0  0  0  0  0
    9.0228    0.7737   25.2876 H   0  0  0  0  0  0  0  0  0  0  0  0
   10.7586   -0.1343   23.1786 H   0  0  0  0  0  0  0  0  0  0  0  0
    9.9935    1.3045   23.2832 H   0  0  0  0  0  0  0  0  0  0  0  0
    6.0553   -3.7669   20.6123 H   0  0  0  0  0  0  0  0  0  0  0  0
    7.0409   -4.5549   21.6489 H   0  0  0  0  0  0  0  0  0  0  0  0
    5.5927   -4.0008   22.1608 H   0  0  0  0  0  0  0  0  0  0  0  0
    6.4751   -0.8341   21.6665 H   0  0  0  0  0  0  0  0  0  0  0  0
    7.8984   -0.4938   18.7488 H   0  0  0  0  0  0  0  0  0  0  0  0
    4.9293    1.1423   21.9748 H   0  0  0  0  0  0  0  0  0  0  0  0
    5.1390    1.6266   16.6729 H   0  0  0  0  0  0  0  0  0  0  0  0
    3.3111    2.7386   17.7967 H   0  0  0  0  0  0  0  0  0  0  0  0
    2.1402    3.2962   19.8077 H   0  0  0  0  0  0  0  0  0  0  0  0
    3.2542    2.5933   23.2195 H   0  0  0  0  0  0  0  0  0  0  0  0
    0.9042    1.7499   23.1940 H   0  0  0  0  0  0  0  0  0  0  0  0
    0.9957    1.5373   21.5776 H   0  0  0  0  0  0  0  0  0  0  0  0
    1.4534    3.9793   21.2823 H   0  0  0  0  0  0  0  0  0  0  0  0
    1.3619    4.1919   22.8988 H   0  0  0  0  0  0  0  0  0  0  0  0
  1  2  1  0  0  0  0
  2  3  2  0  0  0  0
  2  4  1  0  0  0  0
  3  5  1  0  0  0  0
  3  6  1  0  0  0  0
  4  7  2  0  0  0  0
  4  8  1  0  0  0  0
  6  9  2  0  0  0  0
  7 10  1  0  0  0  0
  8 11  1  0  0  0  0
  9 12  1  0  0  0  0
 10 13  1  0  0  0  0
 12 14  1  0  0  0  0
 13 15  2  0  0  0  0
 13 16  1  0  0  0  0
 16 17  1  0  0  0  0
 17 18  1  0  0  0  0
 17 19  2  0  0  0  0
 18 20  1  0  0  0  0
 18 21  2  0  0  0  0
 19 22  1  0  0  0  0
 20 23  1  0  0  0  0
 20 24  2  0  0  0  0
 21 25  1  0  0  0  0
 24 26  1  0  0  0  0
 25 27  1  0  0  0  0
 27 28  1  0  0  0  0
 27 29  1  0  0  0  0
  7  9  1  0  0  0  0
 10 11  1  0  0  0  0
 22 23  2  0  0  0  0
 25 26  2  0  0  0  0
 28 29  1  0  0  0  0
  6 30  1  0  0  0  0
  8 31  1  0  0  0  0
  8 32  1  0  0  0  0
 11 33  1  0  0  0  0
 11 34  1  0  0  0  0
 14 35  1  0  0  0  0
 14 36  1  0  0  0  0
 14 37  1  0  0  0  0
 16 38  1  0  0  0  0
 19 39  1  0  0  0  0
 21 40  1  0  0  0  0
 23 41  1  0  0  0  0
 24 42  1  0  0  0  0
 26 43  1  0  0  0  0
 27 44  1  0  0  0  0
 28 45  1  0  0  0  0
 28 46  1  0  0  0  0
 29 47  1  0  0  0  0
 29 48  1  0  0  0  0
M  END
> <BIOSOLVEIT.HYDE_ESTIMATED_AFFINITY_LOWER_BOUNDARY [nM]>
68430.297690

> <BIOSOLVEIT.HYDE_ESTIMATED_AFFINITY_UPPER_BOUNDARY [nM]>
6798954.667490

> <BIOSOLVEIT.HYDE_LIGAND_EFFICIENCY range: ++, +, 0, -, -->
--

> <BIOSOLVEIT.HYDE_LIGAND_LIPOPHILIC_EFFICIENCY range: ++, +, 0, -, -->
--

> <BIOSOLVEIT.INTER_CLASH range: red, yellow, green>
green

> <BIOSOLVEIT.INTRA_CLASH range: red, yellow, green>
green

> <BIOSOLVEIT.LOGP>
6.0222

> <BIOSOLVEIT.MOLECULAR WEIGHT>
428.317

> <BIOSOLVEIT.MOLECULE_CHECKSUM>
LTE4LjA3MjQ7MC42MjMxODg=

> <BIOSOLVEIT.TORSION_QUALITY range: red, yellow, green, not rotatable>
green

> <BIOSOLVEIT.TPSA>
54.46

> <BIOSOLVEIT.SEESAR_FAVORITE>
favorite

> <smc_score>
0.875

> <QED_score>
0.555

> <distance>
0.614

> <SimilarityPheSA_1>
0.637

> <Smiles>
COc1cc(Cl)c(Cl)c2c1N(C(=O)Nc1cncc3ccc(C4CC4)cc13)CC2

> <Similarity_SkelSpheres>
0.682

> <Cluster No>
219.0

> <QueryID>
ALP-POS-ce760d3f-2

> <SimilarityPheSA>
0.6366

> <Postera series>
3-aminopyridine-like

> <PDB_code>
Mpro-x12659

> <Approach>
DGM_focussed_RL

> <ID>
20210618_427

> <SimilarityPheSA_2>
0.872

> <OPTIBRIUM.logD>
5.45431

> <OPTIBRIUM.BBB category>
-

> <OPTIBRIUM.logP>
5.45431

> <OPTIBRIUM.P-gp category>
yes

> <OPTIBRIUM.logS>
-0.802743

> <OPTIBRIUM.HIA category>
+

> <OPTIBRIUM.PPB90 category>
high

> <OPTIBRIUM.2D6 affinity category>
high

> <OPTIBRIUM.hERG pIC50>
6.00604

> <OPTIBRIUM.2C9 pKi>
6.15407

> <OPTIBRIUM.BBB log([brain]:[blood])>
0.075279

> <OPTIBRIUM.logS @ pH7.4>
-0.802743

$$$$
Compound 428_1_5
haSeeSAR  07122111353D 1   1.00000     0.00000     0
SeeSAR 11.0.2 hazemaj
 48 52  0  0  0  0            999 V2000
    9.0753   -2.0561   27.3987 Cl  0  0  0  0  0  0  0  0  0  0  0  0
    8.4448   -2.1976   25.7403 C   0  0  0  0  0  0  0  0  0  0  0  0
    7.6345   -3.2823   25.4109 C   0  0  0  0  0  0  0  0  0  0  0  0
    8.7389   -1.2365   24.7780 C   0  0  0  0  0  0  0  0  0  0  0  0
    7.2149   -4.5323   26.6102 Cl  0  0  0  0  0  0  0  0  0  0  0  0
    7.1470   -3.3865   24.1109 C   0  0  0  0  0  0  0  0  0  0  0  0
    8.2719   -1.3212   23.4798 C   0  0  0  0  0  0  0  0  0  0  0  0
    9.5572    0.0395   24.8864 C   0  0  0  0  0  0  0  0  0  0  0  0
    7.4687   -2.4155   23.1678 C   0  0  0  0  0  0  0  0  0  0  0  0
    8.7530   -0.2351   22.7453 N   0  0  0  0  0  0  0  0  0  0  0  0
    9.9053    0.3277   23.4442 C   0  0  0  0  0  0  0  0  0  0  0  0
    6.9670   -2.5808   21.9264 O   0  0  0  0  0  0  0  0  0  0  0  0
    8.2047    0.2767   21.5595 C   0  0  0  0  0  0  0  0  0  0  0  0
    6.3703   -3.8164   21.5606 C   0  0  0  0  0  0  0  0  0  0  0  0
    8.8127    1.0895   20.9192 O   0  0  0  0  0  0  0  0  0  0  0  0
    6.9753   -0.1512   21.1326 N   0  0  0  0  0  0  0  0  0  0  0  0
    6.4278    0.3600   19.9486 C   0  0  0  0  0  0  0  0  0  0  0  0
    5.2790    1.1482   19.9294 C   0  0  0  0  0  0  0  0  0  0  0  0
    7.0623    0.0651   18.7463 C   0  0  0  0  0  0  0  0  0  0  0  0
    4.7906    1.6219   18.7158 C   0  0  0  0  0  0  0  0  0  0  0  0
    4.5911    1.4862   21.0911 C   0  0  0  0  0  0  0  0  0  0  0  0
    6.5754    0.5310   17.5868 N   0  0  0  0  0  0  0  0  0  0  0  0
    5.4711    1.2908   17.5485 C   0  0  0  0  0  0  0  0  0  0  0  0
    3.6462    2.4114   18.6726 C   0  0  0  0  0  0  0  0  0  0  0  0
    3.4466    2.2734   21.0551 C   0  0  0  0  0  0  0  0  0  0  0  0
    2.9651    2.7434   19.8390 C   0  0  0  0  0  0  0  0  0  0  0  0
    2.7417    2.6068   22.3595 C   0  0  0  0  0  0  0  0  0  0  0  0
    2.9349    4.0505   22.7212 C   0  0  0  0  0  0  0  0  0  0  0  0
    3.7021    2.9849   23.4503 C   0  0  0  0  0  0  0  0  0  0  0  0
    6.5657   -4.1589   23.8551 H   0  0  0  0  0  0  0  0  0  0  0  0
   10.3806   -0.1047   25.4351 H   0  0  0  0  0  0  0  0  0  0  0  0
    9.0179    0.7822   25.2834 H   0  0  0  0  0  0  0  0  0  0  0  0
   10.7535   -0.1285   23.1754 H   0  0  0  0  0  0  0  0  0  0  0  0
    9.9883    1.3104   23.2782 H   0  0  0  0  0  0  0  0  0  0  0  0
    6.0541   -3.7662   20.6131 H   0  0  0  0  0  0  0  0  0  0  0  0
    7.0434   -4.5506   21.6489 H   0  0  0  0  0  0  0  0  0  0  0  0
    5.5933   -4.0023   22.1619 H   0  0  0  0  0  0  0  0  0  0  0  0
    6.4687   -0.8284   21.6662 H   0  0  0  0  0  0  0  0  0  0  0  0
    7.8880   -0.4988   18.7466 H   0  0  0  0  0  0  0  0  0  0  0  0
    4.9283    1.1548   21.9722 H   0  0  0  0  0  0  0  0  0  0  0  0
    5.1320    1.6240   16.6687 H   0  0  0  0  0  0  0  0  0  0  0  0
    3.3090    2.7445   17.7921 H   0  0  0  0  0  0  0  0  0  0  0  0
    2.1425    3.3110   19.8032 H   0  0  0  0  0  0  0  0  0  0  0  0
    1.8838    2.1480   22.5911 H   0  0  0  0  0  0  0  0  0  0  0  0
    2.2062    4.5506   23.1890 H   0  0  0  0  0  0  0  0  0  0  0  0
    3.4089    4.6648   22.0903 H   0  0  0  0  0  0  0  0  0  0  0  0
    4.6868    2.8895   23.3048 H   0  0  0  0  0  0  0  0  0  0  0  0
    3.4841    2.7753   24.4034 H   0  0  0  0  0  0  0  0  0  0  0  0
  1  2  1  0  0  0  0
  2  3  2  0  0  0  0
  2  4  1  0  0  0  0
  3  5  1  0  0  0  0
  3  6  1  0  0  0  0
  4  7  2  0  0  0  0
  4  8  1  0  0  0  0
  6  9  2  0  0  0  0
  7 10  1  0  0  0  0
  8 11  1  0  0  0  0
  9 12  1  0  0  0  0
 10 13  1  0  0  0  0
 12 14  1  0  0  0  0
 13 15  2  0  0  0  0
 13 16  1  0  0  0  0
 16 17  1  0  0  0  0
 17 18  1  0  0  0  0
 17 19  2  0  0  0  0
 18 20  1  0  0  0  0
 18 21  2  0  0  0  0
 19 22  1  0  0  0  0
 20 23  1  0  0  0  0
 20 24  2  0  0  0  0
 21 25  1  0  0  0  0
 24 26  1  0  0  0  0
 25 27  1  0  0  0  0
 27 28  1  0  0  0  0
 27 29  1  0  0  0  0
  7  9  1  0  0  0  0
 10 11  1  0  0  0  0
 22 23  2  0  0  0  0
 25 26  2  0  0  0  0
 28 29  1  0  0  0  0
  6 30  1  0  0  0  0
  8 31  1  0  0  0  0
  8 32  1  0  0  0  0
 11 33  1  0  0  0  0
 11 34  1  0  0  0  0
 14 35  1  0  0  0  0
 14 36  1  0  0  0  0
 14 37  1  0  0  0  0
 16 38  1  0  0  0  0
 19 39  1  0  0  0  0
 21 40  1  0  0  0  0
 23 41  1  0  0  0  0
 24 42  1  0  0  0  0
 26 43  1  0  0  0  0
 27 44  1  0  0  0  0
 28 45  1  0  0  0  0
 28 46  1  0  0  0  0
 29 47  1  0  0  0  0
 29 48  1  0  0  0  0
M  END
> <BIOSOLVEIT.HYDE_ESTIMATED_AFFINITY_LOWER_BOUNDARY [nM]>
69054.993755

> <BIOSOLVEIT.HYDE_ESTIMATED_AFFINITY_UPPER_BOUNDARY [nM]>
6861021.915005

> <BIOSOLVEIT.HYDE_LIGAND_EFFICIENCY range: ++, +, 0, -, -->
--

> <BIOSOLVEIT.HYDE_LIGAND_LIPOPHILIC_EFFICIENCY range: ++, +, 0, -, -->
--

> <BIOSOLVEIT.INTER_CLASH range: red, yellow, green>
green

> <BIOSOLVEIT.INTRA_CLASH range: red, yellow, green>
green

> <BIOSOLVEIT.LOGP>
6.0222

> <BIOSOLVEIT.MOLECULAR WEIGHT>
428.317

> <BIOSOLVEIT.MOLECULE_CHECKSUM>
LTE4LjA0OTk7MC42MjI0MTE=

> <BIOSOLVEIT.TORSION_QUALITY range: red, yellow, green, not rotatable>
green

> <BIOSOLVEIT.TPSA>
54.46

> <BIOSOLVEIT.SEESAR_FAVORITE>
favorite

> <smc_score>
0.875

> <QED_score>
0.555

> <distance>
0.614

> <SimilarityPheSA_1>
0.637

> <Smiles>
COc1cc(Cl)c(Cl)c2c1N(C(=O)Nc1cncc3ccc(C4CC4)cc13)CC2

> <Similarity_SkelSpheres>
0.682

> <Cluster No>
219.0

> <QueryID>
ALP-POS-ce760d3f-2

> <SimilarityPheSA>
0.6366

> <Postera series>
3-aminopyridine-like

> <PDB_code>
Mpro-x12659

> <Approach>
DGM_focussed_RL

> <ID>
20210618_427

> <SimilarityPheSA_2>
0.872

> <OPTIBRIUM.logD>
5.45431

> <OPTIBRIUM.BBB category>
-

> <OPTIBRIUM.logP>
5.45431

> <OPTIBRIUM.P-gp category>
yes

> <OPTIBRIUM.logS>
-0.802743

> <OPTIBRIUM.HIA category>
+

> <OPTIBRIUM.PPB90 category>
high

> <OPTIBRIUM.2D6 affinity category>
high

> <OPTIBRIUM.hERG pIC50>
6.00604

> <OPTIBRIUM.2C9 pKi>
6.15407

> <OPTIBRIUM.BBB log([brain]:[blood])>
0.075279

> <OPTIBRIUM.logS @ pH7.4>
-0.802743

$$$$
Compound 413_1_06
haSeeSAR  07122111353D 1   1.00000     0.00000     0
SeeSAR 11.0.2 hazemaj
 47 50  0  0  0  0            999 V2000
    5.2818   -2.1878   27.2204 Cl  0  0  0  0  0  0  0  0  0  0  0  0
    6.3905   -0.9282   26.6264 C   0  0  0  0  0  0  0  0  0  0  0  0
    7.6572   -1.2864   26.1768 C   0  0  0  0  0  0  0  0  0  0  0  0
    5.9786    0.4005   26.6193 C   0  0  0  0  0  0  0  0  0  0  0  0
    8.0377   -2.5821   26.1920 O   0  0  0  0  0  0  0  0  0  0  0  0
    8.5183   -0.2973   25.7138 C   0  0  0  0  0  0  0  0  0  0  0  0
    6.8564    1.3735   26.1525 C   0  0  0  0  0  0  0  0  0  0  0  0
    8.6209   -3.1372   27.3618 C   0  0  0  0  0  0  0  0  0  0  0  0
    8.1274    1.0375   25.6976 C   0  0  0  0  0  0  0  0  0  0  0  0
    9.9063   -0.6694   25.2167 C   0  0  0  0  0  0  0  0  0  0  0  0
    6.3389    3.0765   26.1388 Cl  0  0  0  0  0  0  0  0  0  0  0  0
   10.1626    0.0265   23.5656 S   0  0  0  0  0  0  0  0  0  0  0  0
   10.3727    1.4472   23.6707 O   0  0  0  0  0  0  0  0  0  0  0  0
   11.3169   -0.5860   22.9604 O   0  0  0  0  0  0  0  0  0  0  0  0
    8.8000   -0.2726   22.6102 N   0  0  0  0  0  0  0  0  0  0  0  0
    8.4101    0.4735   21.4998 C   0  0  0  0  0  0  0  0  0  0  0  0
    7.8194   -1.3411   22.8543 C   0  0  0  0  0  0  0  0  0  0  0  0
    8.9964    1.4760   21.1000 O   0  0  0  0  0  0  0  0  0  0  0  0
    7.2691   -0.0763   20.9222 N   0  0  0  0  0  0  0  0  0  0  0  0
    6.9115   -1.3018   21.6410 C   0  0  0  0  0  0  0  0  0  0  0  0
    6.5705    0.4440   19.8243 C   0  0  0  0  0  0  0  0  0  0  0  0
    7.0906    0.2456   18.5510 C   0  0  0  0  0  0  0  0  0  0  0  0
    5.3778    1.1500   19.9599 C   0  0  0  0  0  0  0  0  0  0  0  0
    8.2295   -0.4300   18.4393 F   0  0  0  0  0  0  0  0  0  0  0  0
    6.4524    0.7265   17.4733 N   0  0  0  0  0  0  0  0  0  0  0  0
    4.7294    1.6423   18.8309 C   0  0  0  0  0  0  0  0  0  0  0  0
    4.8042    1.3821   21.2077 C   0  0  0  0  0  0  0  0  0  0  0  0
    5.3031    1.4090   17.5853 C   0  0  0  0  0  0  0  0  0  0  0  0
    3.5368    2.3502   18.9401 C   0  0  0  0  0  0  0  0  0  0  0  0
    3.6134    2.0867   21.3454 C   0  0  0  0  0  0  0  0  0  0  0  0
    2.9875    2.5666   20.1998 C   0  0  0  0  0  0  0  0  0  0  0  0
    5.0669    0.6519   26.9442 H   0  0  0  0  0  0  0  0  0  0  0  0
    8.8409   -4.0992   27.2003 H   0  0  0  0  0  0  0  0  0  0  0  0
    9.4573   -2.6372   27.5866 H   0  0  0  0  0  0  0  0  0  0  0  0
    7.9753   -3.0660   28.1222 H   0  0  0  0  0  0  0  0  0  0  0  0
    8.7504    1.7449   25.3638 H   0  0  0  0  0  0  0  0  0  0  0  0
    9.9898   -1.6650   25.1755 H   0  0  0  0  0  0  0  0  0  0  0  0
   10.5941   -0.3029   25.8433 H   0  0  0  0  0  0  0  0  0  0  0  0
    7.3011   -1.1618   23.6905 H   0  0  0  0  0  0  0  0  0  0  0  0
    8.2740   -2.2288   22.9278 H   0  0  0  0  0  0  0  0  0  0  0  0
    5.9526   -1.2741   21.9231 H   0  0  0  0  0  0  0  0  0  0  0  0
    7.0659   -2.1032   21.0632 H   0  0  0  0  0  0  0  0  0  0  0  0
    5.2607    1.0329   22.0259 H   0  0  0  0  0  0  0  0  0  0  0  0
    4.8526    1.7548   16.7623 H   0  0  0  0  0  0  0  0  0  0  0  0
    3.0796    2.6996   18.1222 H   0  0  0  0  0  0  0  0  0  0  0  0
    3.2155    2.2450   22.2491 H   0  0  0  0  0  0  0  0  0  0  0  0
    2.1302    3.0747   20.2829 H   0  0  0  0  0  0  0  0  0  0  0  0
  1  2  1  0  0  0  0
  2  3  2  0  0  0  0
  2  4  1  0  0  0  0
  3  5  1  0  0  0  0
  3  6  1  0  0  0  0
  4  7  2  0  0  0  0
  5  8  1  0  0  0  0
  6  9  2  0  0  0  0
  6 10  1  0  0  0  0
  7 11  1  0  0  0  0
 10 12  1  0  0  0  0
 12 13  2  0  0  0  0
 12 14  2  0  0  0  0
 12 15  1  0  0  0  0
 15 16  1  0  0  0  0
 15 17  1  0  0  0  0
 16 18  2  0  0  0  0
 16 19  1  0  0  0  0
 17 20  1  0  0  0  0
 19 21  1  0  0  0  0
 21 22  2  0  0  0  0
 21 23  1  0  0  0  0
 22 24  1  0  0  0  0
 22 25  1  0  0  0  0
 23 26  1  0  0  0  0
 23 27  2  0  0  0  0
 25 28  2  0  0  0  0
 26 29  2  0  0  0  0
 27 30  1  0  0  0  0
 29 31  1  0  0  0  0
  7  9  1  0  0  0  0
 19 20  1  0  0  0  0
 26 28  1  0  0  0  0
 30 31  2  0  0  0  0
  4 32  1  0  0  0  0
  8 33  1  0  0  0  0
  8 34  1  0  0  0  0
  8 35  1  0  0  0  0
  9 36  1  0  0  0  0
 10 37  1  0  0  0  0
 10 38  1  0  0  0  0
 17 39  1  0  0  0  0
 17 40  1  0  0  0  0
 20 41  1  0  0  0  0
 20 42  1  0  0  0  0
 27 43  1  0  0  0  0
 28 44  1  0  0  0  0
 29 45  1  0  0  0  0
 30 46  1  0  0  0  0
 31 47  1  0  0  0  0
M  END
> <BIOSOLVEIT.HYDE_ESTIMATED_AFFINITY_LOWER_BOUNDARY [nM]>
69070.583048

> <BIOSOLVEIT.HYDE_ESTIMATED_AFFINITY_UPPER_BOUNDARY [nM]>
6862570.803439

> <BIOSOLVEIT.HYDE_LIGAND_EFFICIENCY range: ++, +, 0, -, -->
--

> <BIOSOLVEIT.HYDE_LIGAND_LIPOPHILIC_EFFICIENCY range: ++, +, 0, -, -->
--

> <BIOSOLVEIT.INTER_CLASH range: red, yellow, green>
green

> <BIOSOLVEIT.INTRA_CLASH range: red, yellow, green>
green

> <BIOSOLVEIT.LOGP>
5.1119

> <BIOSOLVEIT.MOLECULAR WEIGHT>
484.332

> <BIOSOLVEIT.MOLECULE_CHECKSUM>
LTE4LjA0OTQ7MC41ODIyMzc=

> <BIOSOLVEIT.TORSION_QUALITY range: red, yellow, green, not rotatable>
yellow

> <BIOSOLVEIT.TPSA>
79.81

> <BIOSOLVEIT.SEESAR_FAVORITE>
favorite

> <smc_score>
0.75

> <QED_score>
0.5

> <distance>
0.655

> <SimilarityPheSA_1>
0.638

> <Smiles>
COc1c(Cl)cc(Cl)cc1CS(=O)(=O)N1CCN(c2c(F)ncc3ccccc23)C1=O

> <Similarity_SkelSpheres>
0.701

> <Cluster No>
211.0

> <QueryID>
PET-UNK-c9c1e0d8-3

> <SimilarityPheSA>
0.6376

> <Postera series>
3-aminopyridine-like

> <PDB_code>
Mpro-x12587

> <Approach>
DGM_focussed_RL

> <ID>
20210618_412

> <SimilarityPheSA_2>
0.729

> <OPTIBRIUM.logD>
3.2737

> <OPTIBRIUM.BBB category>
-

> <OPTIBRIUM.logP>
3.2737

> <OPTIBRIUM.P-gp category>
yes

> <OPTIBRIUM.logS>
-0.435268

> <OPTIBRIUM.HIA category>
+

> <OPTIBRIUM.PPB90 category>
high

> <OPTIBRIUM.2D6 affinity category>
medium

> <OPTIBRIUM.hERG pIC50>
5.81388

> <OPTIBRIUM.2C9 pKi>
5.97686

> <OPTIBRIUM.BBB log([brain]:[blood])>
-0.733853

> <OPTIBRIUM.logS @ pH7.4>
-0.435268

$$$$
Compound 377_1_03
haSeeSAR  07122111353D 1   1.00000     0.00000     0
SeeSAR 11.0.2 hazemaj
 46 49  0  0  0  0            999 V2000
    3.5449    6.3734   22.3169 Cl  0  0  0  0  0  0  0  0  0  0  0  0
    5.1483    5.6100   22.4532 C   0  0  0  0  0  0  0  0  0  0  0  0
    5.3058    4.4172   23.1519 C   0  0  0  0  0  0  0  0  0  0  0  0
    6.2591    6.2104   21.8622 C   0  0  0  0  0  0  0  0  0  0  0  0
    4.2153    3.8531   23.7174 O   0  0  0  0  0  0  0  0  0  0  0  0
    6.5697    3.8383   23.2529 C   0  0  0  0  0  0  0  0  0  0  0  0
    6.0475    7.7377   20.9723 Cl  0  0  0  0  0  0  0  0  0  0  0  0
    7.5045    5.5980   21.9852 C   0  0  0  0  0  0  0  0  0  0  0  0
    3.8424    4.2013   25.0427 C   0  0  0  0  0  0  0  0  0  0  0  0
    7.6905    4.4036   22.6806 C   0  0  0  0  0  0  0  0  0  0  0  0
    6.9543    2.5561   23.9652 C   0  0  1  0  0  0  0  0  0  0  0  0
    8.7479    3.6189   22.9793 O   0  0  0  0  0  0  0  0  0  0  0  0
    8.3036    2.3155   23.3227 C   0  0  2  0  0  0  0  0  0  0  0  0
    7.1676    2.7855   25.4566 C   0  0  0  0  0  0  0  0  0  0  0  0
    8.2124    1.4218   22.0972 C   0  0  0  0  0  0  0  0  0  0  0  0
    8.8121    1.7276   21.0665 O   0  0  0  0  0  0  0  0  0  0  0  0
    7.4886    0.3152   22.1378 N   0  0  0  0  0  0  0  0  0  0  0  0
    7.4004   -0.5494   20.9522 C   0  0  0  0  0  0  0  0  0  0  0  0
    6.6979    0.1996   19.8295 C   0  0  0  0  0  0  0  0  0  0  0  0
    5.5003    0.8899   20.0124 C   0  0  0  0  0  0  0  0  0  0  0  0
    7.2853    0.1889   18.5682 C   0  0  0  0  0  0  0  0  0  0  0  0
    4.9190    1.5506   18.9348 C   0  0  0  0  0  0  0  0  0  0  0  0
    4.8544    0.9439   21.2461 C   0  0  0  0  0  0  0  0  0  0  0  0
    6.7073    0.8333   17.5436 N   0  0  0  0  0  0  0  0  0  0  0  0
    5.5554    1.5028   17.6986 C   0  0  0  0  0  0  0  0  0  0  0  0
    3.7251    2.2471   19.0895 C   0  0  0  0  0  0  0  0  0  0  0  0
    3.6601    1.6340   21.4233 C   0  0  0  0  0  0  0  0  0  0  0  0
    3.0991    2.2874   20.3308 C   0  0  0  0  0  0  0  0  0  0  0  0
    8.2971    6.0325   21.5575 H   0  0  0  0  0  0  0  0  0  0  0  0
    3.0195    3.6953   25.3013 H   0  0  0  0  0  0  0  0  0  0  0  0
    4.5864    3.9706   25.6698 H   0  0  0  0  0  0  0  0  0  0  0  0
    3.6587    5.1831   25.0903 H   0  0  0  0  0  0  0  0  0  0  0  0
    6.3098    1.8132   23.7838 H   0  0  0  0  0  0  0  0  0  0  0  0
    8.9283    1.9106   23.9904 H   0  0  0  0  0  0  0  0  0  0  0  0
    7.4192    1.9222   25.8940 H   0  0  0  0  0  0  0  0  0  0  0  0
    7.9004    3.4528   25.5897 H   0  0  0  0  0  0  0  0  0  0  0  0
    6.3229    3.1322   25.8645 H   0  0  0  0  0  0  0  0  0  0  0  0
    7.0015    0.0668   22.9751 H   0  0  0  0  0  0  0  0  0  0  0  0
    6.8816   -1.3737   21.1786 H   0  0  0  0  0  0  0  0  0  0  0  0
    8.3209   -0.8053   20.6571 H   0  0  0  0  0  0  0  0  0  0  0  0
    8.1443   -0.3025   18.4247 H   0  0  0  0  0  0  0  0  0  0  0  0
    5.2623    0.4721   22.0277 H   0  0  0  0  0  0  0  0  0  0  0  0
    5.1489    1.9735   16.9155 H   0  0  0  0  0  0  0  0  0  0  0  0
    3.3168    2.7190   18.3081 H   0  0  0  0  0  0  0  0  0  0  0  0
    3.2137    1.6600   22.3178 H   0  0  0  0  0  0  0  0  0  0  0  0
    2.2406    2.7889   20.4385 H   0  0  0  0  0  0  0  0  0  0  0  0
  1  2  1  0  0  0  0
  2  3  2  0  0  0  0
  2  4  1  0  0  0  0
  3  5  1  0  0  0  0
  3  6  1  0  0  0  0
  4  7  1  0  0  0  0
  4  8  2  0  0  0  0
  5  9  1  0  0  0  0
  6 10  2  0  0  0  0
  6 11  1  0  0  0  0
 10 12  1  0  0  0  0
 11 13  1  0  0  0  0
 11 14  1  0  0  0  0
 13 15  1  0  0  0  0
 15 16  2  0  0  0  0
 15 17  1  0  0  0  0
 17 18  1  0  0  0  0
 18 19  1  0  0  0  0
 19 20  1  0  0  0  0
 19 21  2  0  0  0  0
 20 22  1  0  0  0  0
 20 23  2  0  0  0  0
 21 24  1  0  0  0  0
 22 25  1  0  0  0  0
 22 26  2  0  0  0  0
 23 27  1  0  0  0  0
 26 28  1  0  0  0  0
  8 10  1  0  0  0  0
 12 13  1  0  0  0  0
 24 25  2  0  0  0  0
 27 28  2  0  0  0  0
  8 29  1  0  0  0  0
  9 30  1  0  0  0  0
  9 31  1  0  0  0  0
  9 32  1  0  0  0  0
 11 33  1  0  0  0  0
 13 34  1  0  0  0  0
 14 35  1  0  0  0  0
 14 36  1  0  0  0  0
 14 37  1  0  0  0  0
 17 38  1  0  0  0  0
 18 39  1  0  0  0  0
 18 40  1  0  0  0  0
 21 41  1  0  0  0  0
 23 42  1  0  0  0  0
 25 43  1  0  0  0  0
 26 44  1  0  0  0  0
 27 45  1  0  0  0  0
 28 46  1  0  0  0  0
M  END
> <BIOSOLVEIT.HYDE_ESTIMATED_AFFINITY_LOWER_BOUNDARY [nM]>
73038.604936

> <BIOSOLVEIT.HYDE_ESTIMATED_AFFINITY_UPPER_BOUNDARY [nM]>
7256817.238809

> <BIOSOLVEIT.HYDE_LIGAND_EFFICIENCY range: ++, +, 0, -, -->
--

> <BIOSOLVEIT.HYDE_LIGAND_LIPOPHILIC_EFFICIENCY range: ++, +, 0, -, -->
--

> <BIOSOLVEIT.INTER_CLASH range: red, yellow, green>
green

> <BIOSOLVEIT.INTRA_CLASH range: red, yellow, green>
yellow

> <BIOSOLVEIT.LOGP>
4.7311

> <BIOSOLVEIT.MOLECULAR WEIGHT>
417.29

> <BIOSOLVEIT.MOLECULE_CHECKSUM>
LTE3LjkxMDk7MC42Mzk2NzQ=

> <BIOSOLVEIT.TORSION_QUALITY range: red, yellow, green, not rotatable>
green

> <BIOSOLVEIT.TPSA>
60.45

> <BIOSOLVEIT.SEESAR_FAVORITE>
favorite

> <smc_score>
0.813

> <QED_score>
0.667

> <distance>
0.595

> <SimilarityPheSA_1>
0.641

> <Smiles>
COc1c(Cl)c(Cl)cc2c1C(C)C(C(=O)NCc1cncc3ccccc13)O2

> <Similarity_SkelSpheres>
0.749

> <Cluster No>
191.0

> <QueryID>
JAN-GHE-5a013bed-2

> <SimilarityPheSA>
0.6409

> <Postera series>
3-aminopyridine-like

> <PDB_code>
Mpro-x10466

> <Approach>
DGM_focussed_RL

> <ID>
20210618_376

> <SimilarityPheSA_2>
0.72

> <OPTIBRIUM.logD>
4.49267

> <OPTIBRIUM.BBB category>
-

> <OPTIBRIUM.logP>
4.49267

> <OPTIBRIUM.P-gp category>
no

> <OPTIBRIUM.logS>
-0.374012

> <OPTIBRIUM.HIA category>
+

> <OPTIBRIUM.PPB90 category>
high

> <OPTIBRIUM.2D6 affinity category>
high

> <OPTIBRIUM.hERG pIC50>
4.67383

> <OPTIBRIUM.2C9 pKi>
5.94949

> <OPTIBRIUM.BBB log([brain]:[blood])>
-0.450526

> <OPTIBRIUM.logS @ pH7.4>
-0.374012

$$$$
Compound 1478_1_002
haSeeSAR  07122111353D 1   1.00000     0.00000     0
SeeSAR 11.0.2 hazemaj
 50 53  0  0  0  0            999 V2000
    9.4431   -0.2226   28.6448 Cl  0  0  0  0  0  0  0  0  0  0  0  0
    8.8659    0.1526   27.0029 C   0  0  0  0  0  0  0  0  0  0  0  0
    7.9740    1.2006   26.8018 C   0  0  0  0  0  0  0  0  0  0  0  0
    9.3158   -0.6085   25.9302 C   0  0  0  0  0  0  0  0  0  0  0  0
    7.4125    2.1590   28.1924 Cl  0  0  0  0  0  0  0  0  0  0  0  0
    7.5178    1.5034   25.5227 C   0  0  0  0  0  0  0  0  0  0  0  0
    8.8563   -0.3017   24.6543 C   0  0  0  0  0  0  0  0  0  0  0  0
    7.9640    0.7444   24.4460 C   0  0  0  0  0  0  0  0  0  0  0  0
    9.3382   -1.1231   23.4693 C   0  0  0  0  0  0  0  0  0  0  0  0
    9.8187   -0.2223   22.4116 N   0  0  0  0  0  0  0  0  0  0  0  0
    8.9716    0.2567   21.5153 C   0  0  0  0  0  0  0  0  0  0  0  0
   11.2401    0.1463   22.3500 C   0  0  0  0  0  0  0  0  0  0  0  0
    9.2159    1.3191   20.9437 O   0  0  0  0  0  0  0  0  0  0  0  0
    7.6968   -0.5051   21.1913 C   0  0  0  0  0  0  0  0  0  0  0  0
   12.1137   -1.0428   22.0056 C   0  0  0  0  0  0  0  0  0  0  0  0
   11.7808    0.5085   23.7200 C   0  0  0  0  0  0  0  0  0  0  0  0
    7.0010    0.1508   20.0087 C   0  0  0  0  0  0  0  0  0  0  0  0
   13.5045   -0.6195   22.4371 C   0  0  0  0  0  0  0  0  0  0  0  0
   13.2863    0.3872   23.5472 C   0  0  0  0  0  0  0  0  0  0  0  0
    7.5902    0.0706   18.8294 N   0  0  0  0  0  0  0  0  0  0  0  0
    5.7584    0.8343   20.1389 C   0  0  0  0  0  0  0  0  0  0  0  0
    7.0640    0.6114   17.7436 N   0  0  0  0  0  0  0  0  0  0  0  0
    5.1837    1.4094   19.0104 C   0  0  0  0  0  0  0  0  0  0  0  0
    5.0916    0.9510   21.3556 C   0  0  0  0  0  0  0  0  0  0  0  0
    5.8728    1.2866   17.7722 C   0  0  0  0  0  0  0  0  0  0  0  0
    3.9685    2.0805   19.1248 C   0  0  0  0  0  0  0  0  0  0  0  0
    3.8792    1.6217   21.4633 C   0  0  0  0  0  0  0  0  0  0  0  0
    5.4472    1.7598   16.7290 O   0  0  0  0  0  0  0  0  0  0  0  0
    3.3006    2.1976   20.3381 C   0  0  0  0  0  0  0  0  0  0  0  0
    3.2729    1.7116   22.6422 F   0  0  0  0  0  0  0  0  0  0  0  0
    9.9575   -1.3619   26.0733 H   0  0  0  0  0  0  0  0  0  0  0  0
    6.8770    2.2576   25.3793 H   0  0  0  0  0  0  0  0  0  0  0  0
    7.6428    0.9510   23.5217 H   0  0  0  0  0  0  0  0  0  0  0  0
    8.5829   -1.6765   23.1181 H   0  0  0  0  0  0  0  0  0  0  0  0
   10.0836   -1.7229   23.7604 H   0  0  0  0  0  0  0  0  0  0  0  0
   11.3854    0.8936   21.7017 H   0  0  0  0  0  0  0  0  0  0  0  0
    7.0891   -0.4910   21.9853 H   0  0  0  0  0  0  0  0  0  0  0  0
    7.9233   -1.4516   20.9617 H   0  0  0  0  0  0  0  0  0  0  0  0
   12.0884   -1.2289   21.0234 H   0  0  0  0  0  0  0  0  0  0  0  0
   11.8191   -1.8565   22.5068 H   0  0  0  0  0  0  0  0  0  0  0  0
   11.4480   -0.1278   24.4160 H   0  0  0  0  0  0  0  0  0  0  0  0
   11.5234    1.4417   23.9712 H   0  0  0  0  0  0  0  0  0  0  0  0
   13.9957   -0.1993   21.6742 H   0  0  0  0  0  0  0  0  0  0  0  0
   14.0219   -1.4063   22.7739 H   0  0  0  0  0  0  0  0  0  0  0  0
   13.7076    0.0651   24.3950 H   0  0  0  0  0  0  0  0  0  0  0  0
   13.6786    1.2717   23.2950 H   0  0  0  0  0  0  0  0  0  0  0  0
    7.5509    0.5247   16.8746 H   0  0  0  0  0  0  0  0  0  0  0  0
    5.4958    0.5416   22.1734 H   0  0  0  0  0  0  0  0  0  0  0  0
    3.5636    2.4913   18.3078 H   0  0  0  0  0  0  0  0  0  0  0  0
    2.4283    2.6825   20.3999 H   0  0  0  0  0  0  0  0  0  0  0  0
  1  2  1  0  0  0  0
  2  3  2  0  0  0  0
  2  4  1  0  0  0  0
  3  5  1  0  0  0  0
  3  6  1  0  0  0  0
  4  7  2  0  0  0  0
  6  8  2  0  0  0  0
  7  9  1  0  0  0  0
  9 10  1  0  0  0  0
 10 11  1  0  0  0  0
 10 12  1  0  0  0  0
 11 13  2  0  0  0  0
 11 14  1  0  0  0  0
 12 15  1  0  0  0  0
 12 16  1  0  0  0  0
 14 17  1  0  0  0  0
 15 18  1  0  0  0  0
 16 19  1  0  0  0  0
 17 20  2  0  0  0  0
 17 21  1  0  0  0  0
 20 22  1  0  0  0  0
 21 23  2  0  0  0  0
 21 24  1  0  0  0  0
 22 25  1  0  0  0  0
 23 26  1  0  0  0  0
 24 27  2  0  0  0  0
 25 28  2  0  0  0  0
 26 29  2  0  0  0  0
 27 30  1  0  0  0  0
  7  8  1  0  0  0  0
 18 19  1  0  0  0  0
 23 25  1  0  0  0  0
 27 29  1  0  0  0  0
  4 31  1  0  0  0  0
  6 32  1  0  0  0  0
  8 33  1  0  0  0  0
  9 34  1  0  0  0  0
  9 35  1  0  0  0  0
 12 36  1  0  0  0  0
 14 37  1  0  0  0  0
 14 38  1  0  0  0  0
 15 39  1  0  0  0  0
 15 40  1  0  0  0  0
 16 41  1  0  0  0  0
 16 42  1  0  0  0  0
 18 43  1  0  0  0  0
 18 44  1  0  0  0  0
 19 45  1  0  0  0  0
 19 46  1  0  0  0  0
 22 47  1  0  0  0  0
 24 48  1  0  0  0  0
 26 49  1  0  0  0  0
 29 50  1  0  0  0  0
M  END
> <BIOSOLVEIT.HYDE_ESTIMATED_AFFINITY_LOWER_BOUNDARY [nM]>
75147.585676

> <BIOSOLVEIT.HYDE_ESTIMATED_AFFINITY_UPPER_BOUNDARY [nM]>
7466356.944586

> <BIOSOLVEIT.HYDE_LIGAND_EFFICIENCY range: ++, +, 0, -, -->
--

> <BIOSOLVEIT.HYDE_LIGAND_LIPOPHILIC_EFFICIENCY range: ++, +, 0, -, -->
--

> <BIOSOLVEIT.INTER_CLASH range: red, yellow, green>
green

> <BIOSOLVEIT.INTRA_CLASH range: red, yellow, green>
green

> <BIOSOLVEIT.LOGP>
4.8829

> <BIOSOLVEIT.MOLECULAR WEIGHT>
448.323

> <BIOSOLVEIT.MOLECULE_CHECKSUM>
LTE3Ljg0MDM7MC41OTQ2Nzc=

> <BIOSOLVEIT.TORSION_QUALITY range: red, yellow, green, not rotatable>
green

> <BIOSOLVEIT.TPSA>
66.06

> <BIOSOLVEIT.SEESAR_FAVORITE>
favorite

> <smc_score>
0.75

> <QED_score>
0.605

> <distance>
0.738

> <SimilarityPheSA_1>
0.637

> <Smiles>
O=C(Cc1n[nH]c(=O)c2ccc(F)cc12)N(Cc1ccc(Cl)c(Cl)c1)C1CCCC1

> <Similarity_SkelSpheres>
0.604

> <Cluster No>
330.0

> <QueryID>
CHO-MSK-00c5269a-2

> <SimilarityPheSA>
0.6366

> <Postera series>
3-aminopyridine-like

> <PDB_code>
Mpro-x12177

> <Approach>
DGM_exploratory_RL

> <ID>
20210628_748

> <SimilarityPheSA_2>
0.68

> <OPTIBRIUM.logD>
4.17741

> <OPTIBRIUM.BBB category>
-

> <OPTIBRIUM.logP>
4.17741

> <OPTIBRIUM.P-gp category>
yes

> <OPTIBRIUM.logS>
0.118412

> <OPTIBRIUM.HIA category>
+

> <OPTIBRIUM.PPB90 category>
high

> <OPTIBRIUM.2D6 affinity category>
high

> <OPTIBRIUM.hERG pIC50>
6.00867

> <OPTIBRIUM.2C9 pKi>
5.31428

> <OPTIBRIUM.BBB log([brain]:[blood])>
-1.15394

> <OPTIBRIUM.logS @ pH7.4>
0.118412

$$$$
Compound 664_1_04
haSeeSAR  07122111353D 1   1.00000     0.00000     0
SeeSAR 11.0.2 hazemaj
 43 46  0  0  0  0            999 V2000
    3.1511    5.5196   23.4795 Cl  0  0  0  0  0  0  0  0  0  0  0  0
    4.5382    4.4397   23.7582 C   0  0  0  0  0  0  0  0  0  0  0  0
    5.6961    4.5882   22.9952 C   0  0  0  0  0  0  0  0  0  0  0  0
    4.4812    3.4490   24.7321 C   0  0  0  0  0  0  0  0  0  0  0  0
    5.7443    5.5342   22.0613 F   0  0  0  0  0  0  0  0  0  0  0  0
    6.7919    3.7584   23.2138 C   0  0  0  0  0  0  0  0  0  0  0  0
    5.5970    2.6313   24.9137 C   0  0  0  0  0  0  0  0  0  0  0  0
    6.7690    2.7574   24.1659 C   0  0  0  0  0  0  0  0  0  0  0  0
    8.1745    3.7076   22.5957 C   0  0  0  0  0  0  0  0  0  0  0  0
    7.9583    2.1215   24.1487 O   0  0  0  0  0  0  0  0  0  0  0  0
    8.6810    2.3259   22.9456 C   0  0  1  0  0  0  0  0  0  0  0  0
    8.3295    1.2984   21.8849 C   0  0  0  0  0  0  0  0  0  0  0  0
    8.8800    1.3367   20.7845 O   0  0  0  0  0  0  0  0  0  0  0  0
    7.4315    0.3618   22.1431 N   0  0  0  0  0  0  0  0  0  0  0  0
    7.0910   -0.6331   21.1160 C   0  0  0  0  0  0  0  0  0  0  0  0
    6.5031    0.0717   19.9020 C   0  0  0  0  0  0  0  0  0  0  0  0
    5.3930    0.8992   20.0377 C   0  0  0  0  0  0  0  0  0  0  0  0
    7.0973   -0.0901   18.6571 C   0  0  0  0  0  0  0  0  0  0  0  0
    4.8959    1.5111   18.8903 C   0  0  0  0  0  0  0  0  0  0  0  0
    4.7509    1.1420   21.3945 C   0  0  0  0  0  0  0  0  0  0  0  0
    6.5923    0.5416   17.5848 N   0  0  0  0  0  0  0  0  0  0  0  0
    5.5121    1.3340   17.6567 C   0  0  0  0  0  0  0  0  0  0  0  0
    3.6533    2.3814   18.9710 C   0  0  0  0  0  0  0  0  0  0  0  0
    3.3124    1.6020   21.2637 C   0  0  0  0  0  0  0  0  0  0  0  0
    3.3741    2.8449   20.3911 C   0  0  0  0  0  0  0  0  0  0  0  0
    3.6600    3.3255   25.2891 H   0  0  0  0  0  0  0  0  0  0  0  0
    5.5551    1.9192   25.6146 H   0  0  0  0  0  0  0  0  0  0  0  0
    8.7654    4.4127   22.9877 H   0  0  0  0  0  0  0  0  0  0  0  0
    8.1253    3.8276   21.6040 H   0  0  0  0  0  0  0  0  0  0  0  0
    9.6660    2.3391   23.1182 H   0  0  0  0  0  0  0  0  0  0  0  0
    6.9843    0.3307   23.0370 H   0  0  0  0  0  0  0  0  0  0  0  0
    6.4206   -1.2769   21.4848 H   0  0  0  0  0  0  0  0  0  0  0  0
    7.9162   -1.1293   20.8460 H   0  0  0  0  0  0  0  0  0  0  0  0
    7.9012   -0.6769   18.5591 H   0  0  0  0  0  0  0  0  0  0  0  0
    5.2725    1.8448   21.8783 H   0  0  0  0  0  0  0  0  0  0  0  0
    4.7718    0.2910   21.9192 H   0  0  0  0  0  0  0  0  0  0  0  0
    5.1573    1.7881   16.8395 H   0  0  0  0  0  0  0  0  0  0  0  0
    2.8687    1.8553   18.6430 H   0  0  0  0  0  0  0  0  0  0  0  0
    3.7832    3.1843   18.3890 H   0  0  0  0  0  0  0  0  0  0  0  0
    2.9308    1.8215   22.1615 H   0  0  0  0  0  0  0  0  0  0  0  0
    2.7556    0.8945   20.8286 H   0  0  0  0  0  0  0  0  0  0  0  0
    2.5020    3.3329   20.4273 H   0  0  0  0  0  0  0  0  0  0  0  0
    4.1070    3.4484   20.7052 H   0  0  0  0  0  0  0  0  0  0  0  0
  1  2  1  0  0  0  0
  2  3  2  0  0  0  0
  2  4  1  0  0  0  0
  3  5  1  0  0  0  0
  3  6  1  0  0  0  0
  4  7  2  0  0  0  0
  6  8  2  0  0  0  0
  6  9  1  0  0  0  0
  8 10  1  0  0  0  0
  9 11  1  0  0  0  0
 11 12  1  0  0  0  0
 12 13  2  0  0  0  0
 12 14  1  0  0  0  0
 14 15  1  0  0  0  0
 15 16  1  0  0  0  0
 16 17  2  0  0  0  0
 16 18  1  0  0  0  0
 17 19  1  0  0  0  0
 17 20  1  0  0  0  0
 18 21  2  0  0  0  0
 19 22  2  0  0  0  0
 19 23  1  0  0  0  0
 20 24  1  0  0  0  0
 23 25  1  0  0  0  0
  7  8  1  0  0  0  0
 10 11  1  0  0  0  0
 21 22  1  0  0  0  0
 24 25  1  0  0  0  0
  4 26  1  0  0  0  0
  7 27  1  0  0  0  0
  9 28  1  0  0  0  0
  9 29  1  0  0  0  0
 11 30  1  0  0  0  0
 14 31  1  0  0  0  0
 15 32  1  0  0  0  0
 15 33  1  0  0  0  0
 18 34  1  0  0  0  0
 20 35  1  0  0  0  0
 20 36  1  0  0  0  0
 22 37  1  0  0  0  0
 23 38  1  0  0  0  0
 23 39  1  0  0  0  0
 24 40  1  0  0  0  0
 24 41  1  0  0  0  0
 25 42  1  0  0  0  0
 25 43  1  0  0  0  0
M  END
> <BIOSOLVEIT.HYDE_ESTIMATED_AFFINITY_LOWER_BOUNDARY [nM]>
77332.788375

> <BIOSOLVEIT.HYDE_ESTIMATED_AFFINITY_UPPER_BOUNDARY [nM]>
7683469.752691

> <BIOSOLVEIT.HYDE_LIGAND_EFFICIENCY range: ++, +, 0, -, -->
--

> <BIOSOLVEIT.HYDE_LIGAND_LIPOPHILIC_EFFICIENCY range: ++, +, 0, -, -->
--

> <BIOSOLVEIT.INTER_CLASH range: red, yellow, green>
green

> <BIOSOLVEIT.INTRA_CLASH range: red, yellow, green>
yellow

> <BIOSOLVEIT.LOGP>
3.3728

> <BIOSOLVEIT.MOLECULAR WEIGHT>
360.814

> <BIOSOLVEIT.MOLECULE_CHECKSUM>
LTE3Ljc2OTM7MC43MTA3Nw==

> <BIOSOLVEIT.TORSION_QUALITY range: red, yellow, green, not rotatable>
green

> <BIOSOLVEIT.TPSA>
51.22

> <BIOSOLVEIT.SEESAR_FAVORITE>
favorite

> <smc_score>
0.688

> <QED_score>
0.913

> <distance>
0.667

> <SimilarityPheSA_1>
0.642

> <Smiles>
O=C(NCc1cncc2c1CCCC2)C1Cc2c(ccc(Cl)c2F)O1

> <Similarity_SkelSpheres>
0.699

> <Cluster No>
367.0

> <QueryID>
MAT-POS-199e2e7c-1

> <SimilarityPheSA>
0.6416

> <Postera series>
3-aminopyridine-like

> <PDB_code>
Mpro-x12000

> <Approach>
DGM_focussed_RL

> <ID>
20210618_663

> <SimilarityPheSA_2>
0.782

> <OPTIBRIUM.logD>
3.34577

> <OPTIBRIUM.BBB category>
+

> <OPTIBRIUM.logP>
3.34577

> <OPTIBRIUM.P-gp category>
no

> <OPTIBRIUM.logS>
1.10716

> <OPTIBRIUM.HIA category>
+

> <OPTIBRIUM.PPB90 category>
high

> <OPTIBRIUM.2D6 affinity category>
high

> <OPTIBRIUM.hERG pIC50>
4.67952

> <OPTIBRIUM.2C9 pKi>
5.31822

> <OPTIBRIUM.BBB log([brain]:[blood])>
-0.230286

> <OPTIBRIUM.logS @ pH7.4>
1.10716

$$$$
Compound 664_1_01
haSeeSAR  07122111353D 1   1.00000     0.00000     0
SeeSAR 11.0.2 hazemaj
 43 46  0  0  0  0            999 V2000
    4.9525    6.5700   26.4318 Cl  0  0  0  0  0  0  0  0  0  0  0  0
    5.9420    5.2029   25.8636 C   0  0  0  0  0  0  0  0  0  0  0  0
    6.3966    5.1716   24.5489 C   0  0  0  0  0  0  0  0  0  0  0  0
    6.2536    4.1620   26.7302 C   0  0  0  0  0  0  0  0  0  0  0  0
    6.0907    6.1714   23.7235 F   0  0  0  0  0  0  0  0  0  0  0  0
    7.1456    4.0634   24.1294 C   0  0  0  0  0  0  0  0  0  0  0  0
    7.0113    3.0916   26.2616 C   0  0  0  0  0  0  0  0  0  0  0  0
    7.4556    2.9967   24.9435 C   0  0  0  0  0  0  0  0  0  0  0  0
    7.7108    3.7484   22.7629 C   0  0  0  0  0  0  0  0  0  0  0  0
    8.1307    2.0548   24.2285 O   0  0  0  0  0  0  0  0  0  0  0  0
    8.5867    2.5377   22.9826 C   0  0  1  0  0  0  0  0  0  0  0  0
    8.3048    1.4753   21.9356 C   0  0  0  0  0  0  0  0  0  0  0  0
    8.9042    1.4960   20.8606 O   0  0  0  0  0  0  0  0  0  0  0  0
    7.4149    0.5269   22.1786 N   0  0  0  0  0  0  0  0  0  0  0  0
    7.1419   -0.5019   21.1648 C   0  0  0  0  0  0  0  0  0  0  0  0
    6.5283    0.1491   19.9337 C   0  0  0  0  0  0  0  0  0  0  0  0
    5.3888    0.9389   20.0491 C   0  0  0  0  0  0  0  0  0  0  0  0
    7.1277   -0.0233   18.6926 C   0  0  0  0  0  0  0  0  0  0  0  0
    4.8694    1.5021   18.8867 C   0  0  0  0  0  0  0  0  0  0  0  0
    4.7386    1.1934   21.3998 C   0  0  0  0  0  0  0  0  0  0  0  0
    6.5998    0.5614   17.6049 N   0  0  0  0  0  0  0  0  0  0  0  0
    5.4914    1.3155   17.6574 C   0  0  0  0  0  0  0  0  0  0  0  0
    3.5959    2.3284   18.9462 C   0  0  0  0  0  0  0  0  0  0  0  0
    3.2843    1.5970   21.2588 C   0  0  0  0  0  0  0  0  0  0  0  0
    3.3003    2.8182   20.3542 C   0  0  0  0  0  0  0  0  0  0  0  0
    5.9376    4.1814   27.6787 H   0  0  0  0  0  0  0  0  0  0  0  0
    7.2474    2.3581   26.8992 H   0  0  0  0  0  0  0  0  0  0  0  0
    8.2504    4.5166   22.4184 H   0  0  0  0  0  0  0  0  0  0  0  0
    6.9767    3.5403   22.1166 H   0  0  0  0  0  0  0  0  0  0  0  0
    9.5561    2.7817   23.0117 H   0  0  0  0  0  0  0  0  0  0  0  0
    6.9280    0.5100   23.0519 H   0  0  0  0  0  0  0  0  0  0  0  0
    6.5047   -1.1765   21.5377 H   0  0  0  0  0  0  0  0  0  0  0  0
    7.9964   -0.9551   20.9113 H   0  0  0  0  0  0  0  0  0  0  0  0
    7.9524   -0.5827   18.6090 H   0  0  0  0  0  0  0  0  0  0  0  0
    5.2343    1.9270   21.8645 H   0  0  0  0  0  0  0  0  0  0  0  0
    4.7906    0.3576   21.9465 H   0  0  0  0  0  0  0  0  0  0  0  0
    5.1200    1.7349   16.8291 H   0  0  0  0  0  0  0  0  0  0  0  0
    2.8310    1.7657   18.6329 H   0  0  0  0  0  0  0  0  0  0  0  0
    3.6963    3.1200   18.3434 H   0  0  0  0  0  0  0  0  0  0  0  0
    2.8951    1.8258   22.1510 H   0  0  0  0  0  0  0  0  0  0  0  0
    2.7535    0.8586   20.8429 H   0  0  0  0  0  0  0  0  0  0  0  0
    2.4110    3.2748   20.3787 H   0  0  0  0  0  0  0  0  0  0  0  0
    4.0108    3.4560   20.6515 H   0  0  0  0  0  0  0  0  0  0  0  0
  1  2  1  0  0  0  0
  2  3  2  0  0  0  0
  2  4  1  0  0  0  0
  3  5  1  0  0  0  0
  3  6  1  0  0  0  0
  4  7  2  0  0  0  0
  6  8  2  0  0  0  0
  6  9  1  0  0  0  0
  8 10  1  0  0  0  0
  9 11  1  0  0  0  0
 11 12  1  0  0  0  0
 12 13  2  0  0  0  0
 12 14  1  0  0  0  0
 14 15  1  0  0  0  0
 15 16  1  0  0  0  0
 16 17  2  0  0  0  0
 16 18  1  0  0  0  0
 17 19  1  0  0  0  0
 17 20  1  0  0  0  0
 18 21  2  0  0  0  0
 19 22  2  0  0  0  0
 19 23  1  0  0  0  0
 20 24  1  0  0  0  0
 23 25  1  0  0  0  0
  7  8  1  0  0  0  0
 10 11  1  0  0  0  0
 21 22  1  0  0  0  0
 24 25  1  0  0  0  0
  4 26  1  0  0  0  0
  7 27  1  0  0  0  0
  9 28  1  0  0  0  0
  9 29  1  0  0  0  0
 11 30  1  0  0  0  0
 14 31  1  0  0  0  0
 15 32  1  0  0  0  0
 15 33  1  0  0  0  0
 18 34  1  0  0  0  0
 20 35  1  0  0  0  0
 20 36  1  0  0  0  0
 22 37  1  0  0  0  0
 23 38  1  0  0  0  0
 23 39  1  0  0  0  0
 24 40  1  0  0  0  0
 24 41  1  0  0  0  0
 25 42  1  0  0  0  0
 25 43  1  0  0  0  0
M  END
> <BIOSOLVEIT.HYDE_ESTIMATED_AFFINITY_LOWER_BOUNDARY [nM]>
82675.502110

> <BIOSOLVEIT.HYDE_ESTIMATED_AFFINITY_UPPER_BOUNDARY [nM]>
8214299.950923

> <BIOSOLVEIT.HYDE_LIGAND_EFFICIENCY range: ++, +, 0, -, -->
--

> <BIOSOLVEIT.HYDE_LIGAND_LIPOPHILIC_EFFICIENCY range: ++, +, 0, -, -->
--

> <BIOSOLVEIT.INTER_CLASH range: red, yellow, green>
green

> <BIOSOLVEIT.INTRA_CLASH range: red, yellow, green>
yellow

> <BIOSOLVEIT.LOGP>
3.3728

> <BIOSOLVEIT.MOLECULAR WEIGHT>
360.814

> <BIOSOLVEIT.MOLECULE_CHECKSUM>
LTE3LjYwMzc7MC43MDQxNDY=

> <BIOSOLVEIT.TORSION_QUALITY range: red, yellow, green, not rotatable>
green

> <BIOSOLVEIT.TPSA>
51.22

> <BIOSOLVEIT.SEESAR_FAVORITE>
favorite

> <smc_score>
0.688

> <QED_score>
0.913

> <distance>
0.667

> <SimilarityPheSA_1>
0.642

> <Smiles>
O=C(NCc1cncc2c1CCCC2)C1Cc2c(ccc(Cl)c2F)O1

> <Similarity_SkelSpheres>
0.699

> <Cluster No>
367.0

> <QueryID>
MAT-POS-199e2e7c-1

> <SimilarityPheSA>
0.6416

> <Postera series>
3-aminopyridine-like

> <PDB_code>
Mpro-x12000

> <Approach>
DGM_focussed_RL

> <ID>
20210618_663

> <SimilarityPheSA_2>
0.782

> <OPTIBRIUM.logD>
3.34577

> <OPTIBRIUM.BBB category>
+

> <OPTIBRIUM.logP>
3.34577

> <OPTIBRIUM.P-gp category>
no

> <OPTIBRIUM.logS>
1.10716

> <OPTIBRIUM.HIA category>
+

> <OPTIBRIUM.PPB90 category>
high

> <OPTIBRIUM.2D6 affinity category>
high

> <OPTIBRIUM.hERG pIC50>
4.67952

> <OPTIBRIUM.2C9 pKi>
5.31822

> <OPTIBRIUM.BBB log([brain]:[blood])>
-0.230286

> <OPTIBRIUM.logS @ pH7.4>
1.10716

$$$$
Compound 540_1_08
haSeeSAR  07122111353D 1   1.00000     0.00000     0
SeeSAR 11.0.2 hazemaj
 35 38  0  0  0  0            999 V2000
   11.5206    1.9783   22.4619 Cl  0  0  0  0  0  0  0  0  0  0  0  0
   11.0208    0.2902   22.7241 C   0  0  0  0  0  0  0  0  0  0  0  0
   11.9779   -0.7183   22.7034 C   0  0  0  0  0  0  0  0  0  0  0  0
    9.6928   -0.0590   22.9499 C   0  0  0  0  0  0  0  0  0  0  0  0
   13.6943   -0.3408   22.4189 Cl  0  0  0  0  0  0  0  0  0  0  0  0
   11.5642   -2.0302   22.9112 C   0  0  0  0  0  0  0  0  0  0  0  0
    9.2541   -1.3389   23.1597 C   0  0  0  0  0  0  0  0  0  0  0  0
    8.4901    0.8572   23.0129 C   0  0  1  0  0  0  0  0  0  0  0  0
   10.2267   -2.3337   23.1368 C   0  0  0  0  0  0  0  0  0  0  0  0
    7.9164   -1.3471   23.3544 O   0  0  0  0  0  0  0  0  0  0  0  0
    7.9213    1.1500   21.6343 C   0  0  0  0  0  0  0  0  0  0  0  0
    7.5751   -0.0510   23.8081 C   0  0  0  0  0  0  0  0  0  0  0  0
    8.4881    1.9522   20.8923 O   0  0  0  0  0  0  0  0  0  0  0  0
    6.8171    0.5427   21.2315 N   0  0  0  0  0  0  0  0  0  0  0  0
    6.2926    0.8127   19.9604 C   0  0  0  0  0  0  0  0  0  0  0  0
    5.1648    1.5853   19.7862 N   0  0  0  0  0  0  0  0  0  0  0  0
    6.9631    0.2594   18.8972 C   0  0  0  0  0  0  0  0  0  0  0  0
    4.7146    1.7990   18.5282 C   0  0  0  0  0  0  0  0  0  0  0  0
    4.2885    2.2286   20.6170 C   0  0  0  0  0  0  0  0  0  0  0  0
    6.5149    0.4705   17.6189 N   0  0  0  0  0  0  0  0  0  0  0  0
    3.6387    2.5629   18.6193 N   0  0  0  0  0  0  0  0  0  0  0  0
    5.4319    1.2166   17.4464 C   0  0  0  0  0  0  0  0  0  0  0  0
    3.3741    2.8168   19.8836 N   0  0  0  0  0  0  0  0  0  0  0  0
    4.3419    2.2872   22.1391 C   0  0  0  0  0  0  0  0  0  0  0  0
   12.2402   -2.7669   22.8981 H   0  0  0  0  0  0  0  0  0  0  0  0
    8.6956    1.6993   23.5117 H   0  0  0  0  0  0  0  0  0  0  0  0
    9.9583   -3.2854   23.2856 H   0  0  0  0  0  0  0  0  0  0  0  0
    6.6151    0.1531   23.6165 H   0  0  0  0  0  0  0  0  0  0  0  0
    7.7460    0.0405   24.7891 H   0  0  0  0  0  0  0  0  0  0  0  0
    6.3566   -0.1090   21.8343 H   0  0  0  0  0  0  0  0  0  0  0  0
    7.7784   -0.2976   19.0554 H   0  0  0  0  0  0  0  0  0  0  0  0
    5.1052    1.3767   16.5151 H   0  0  0  0  0  0  0  0  0  0  0  0
    3.5724    2.8279   22.4790 H   0  0  0  0  0  0  0  0  0  0  0  0
    4.2878    1.3603   22.5104 H   0  0  0  0  0  0  0  0  0  0  0  0
    5.2005    2.7119   22.4264 H   0  0  0  0  0  0  0  0  0  0  0  0
  1  2  1  0  0  0  0
  2  3  2  0  0  0  0
  2  4  1  0  0  0  0
  3  5  1  0  0  0  0
  3  6  1  0  0  0  0
  4  7  2  0  0  0  0
  4  8  1  0  0  0  0
  6  9  2  0  0  0  0
  7 10  1  0  0  0  0
  8 11  1  0  0  0  0
  8 12  1  0  0  0  0
 11 13  2  0  0  0  0
 11 14  1  0  0  0  0
 14 15  1  0  0  0  0
 15 16  1  0  0  0  0
 15 17  2  0  0  0  0
 16 18  1  0  0  0  0
 16 19  1  0  0  0  0
 17 20  1  0  0  0  0
 18 21  2  0  0  0  0
 18 22  1  0  0  0  0
 19 23  2  0  0  0  0
 19 24  1  0  0  0  0
  7  9  1  0  0  0  0
 10 12  1  0  0  0  0
 20 22  2  0  0  0  0
 21 23  1  0  0  0  0
  6 25  1  0  0  0  0
  8 26  1  0  0  0  0
  9 27  1  0  0  0  0
 12 28  1  0  0  0  0
 12 29  1  0  0  0  0
 14 30  1  0  0  0  0
 17 31  1  0  0  0  0
 22 32  1  0  0  0  0
 24 33  1  0  0  0  0
 24 34  1  0  0  0  0
 24 35  1  0  0  0  0
M  END
> <BIOSOLVEIT.HYDE_ESTIMATED_AFFINITY_LOWER_BOUNDARY [nM]>
87994.758750

> <BIOSOLVEIT.HYDE_ESTIMATED_AFFINITY_UPPER_BOUNDARY [nM]>
8742799.548047

> <BIOSOLVEIT.HYDE_LIGAND_EFFICIENCY range: ++, +, 0, -, -->
--

> <BIOSOLVEIT.HYDE_LIGAND_LIPOPHILIC_EFFICIENCY range: ++, +, 0, -, -->
--

> <BIOSOLVEIT.INTER_CLASH range: red, yellow, green>
green

> <BIOSOLVEIT.INTRA_CLASH range: red, yellow, green>
green

> <BIOSOLVEIT.LOGP>
2.85422

> <BIOSOLVEIT.MOLECULAR WEIGHT>
364.191

> <BIOSOLVEIT.MOLECULE_CHECKSUM>
LTE3LjQ0OTE7MC43MjcwNDU=

> <BIOSOLVEIT.TORSION_QUALITY range: red, yellow, green, not rotatable>
green

> <BIOSOLVEIT.TPSA>
81.93

> <BIOSOLVEIT.SEESAR_FAVORITE>
favorite

> <smc_score>
0.688

> <QED_score>
0.756

> <distance>
0.608

> <SimilarityPheSA_1>
0.675

> <Smiles>
Cc1nnc2cncc(NC(=O)C3COc4ccc(Cl)c(Cl)c43)n12

> <Similarity_SkelSpheres>
0.572

> <Cluster No>
288.0

> <QueryID>
EDJ-MED-e4b030d8-13

> <SimilarityPheSA>
0.6751

> <Postera series>
3-aminopyridine-like

> <PDB_code>
Mpro-x12207

> <Approach>
DGM_focussed_RL

> <ID>
20210618_539

> <SimilarityPheSA_2>
0.919

> <OPTIBRIUM.logD>
2.6583

> <OPTIBRIUM.BBB category>
-

> <OPTIBRIUM.logP>
2.6583

> <OPTIBRIUM.P-gp category>
no

> <OPTIBRIUM.logS>
1.66321

> <OPTIBRIUM.HIA category>
+

> <OPTIBRIUM.PPB90 category>
high

> <OPTIBRIUM.2D6 affinity category>
high

> <OPTIBRIUM.hERG pIC50>
4.70586

> <OPTIBRIUM.2C9 pKi>
5.48148

> <OPTIBRIUM.BBB log([brain]:[blood])>
-0.434145

> <OPTIBRIUM.logS @ pH7.4>
1.66321

$$$$
Compound 664_1_07
haSeeSAR  07122111353D 1   1.00000     0.00000     0
SeeSAR 11.0.2 hazemaj
 43 46  0  0  0  0            999 V2000
    5.0084    6.5041   26.4904 Cl  0  0  0  0  0  0  0  0  0  0  0  0
    5.9795    5.1287   25.9113 C   0  0  0  0  0  0  0  0  0  0  0  0
    6.4566    5.1145   24.6043 C   0  0  0  0  0  0  0  0  0  0  0  0
    6.2543    4.0640   26.7615 C   0  0  0  0  0  0  0  0  0  0  0  0
    6.1860    6.1369   23.7945 F   0  0  0  0  0  0  0  0  0  0  0  0
    7.1900    3.9996   24.1750 C   0  0  0  0  0  0  0  0  0  0  0  0
    6.9981    2.9877   26.2841 C   0  0  0  0  0  0  0  0  0  0  0  0
    7.4635    2.9103   24.9722 C   0  0  0  0  0  0  0  0  0  0  0  0
    7.7727    3.7005   22.8122 C   0  0  0  0  0  0  0  0  0  0  0  0
    8.1316    1.9692   24.2496 O   0  0  0  0  0  0  0  0  0  0  0  0
    8.6196    2.4676   23.0220 C   0  0  1  0  0  0  0  0  0  0  0  0
    8.3345    1.4327   21.9487 C   0  0  0  0  0  0  0  0  0  0  0  0
    8.9234    1.4873   20.8691 O   0  0  0  0  0  0  0  0  0  0  0  0
    7.4530    0.4721   22.1736 N   0  0  0  0  0  0  0  0  0  0  0  0
    7.1770   -0.5301   21.1342 C   0  0  0  0  0  0  0  0  0  0  0  0
    6.5422    0.1510   19.9274 C   0  0  0  0  0  0  0  0  0  0  0  0
    5.3997    0.9387   20.0455 C   0  0  0  0  0  0  0  0  0  0  0  0
    7.1329   -0.0240   18.6789 C   0  0  0  0  0  0  0  0  0  0  0  0
    4.8746    1.4955   18.8816 C   0  0  0  0  0  0  0  0  0  0  0  0
    4.7709    1.1766   21.4099 C   0  0  0  0  0  0  0  0  0  0  0  0
    6.5942    0.5645   17.5986 N   0  0  0  0  0  0  0  0  0  0  0  0
    5.4819    1.3164   17.6454 C   0  0  0  0  0  0  0  0  0  0  0  0
    3.5962    2.3180   18.9388 C   0  0  0  0  0  0  0  0  0  0  0  0
    3.3199    1.5994   21.2614 C   0  0  0  0  0  0  0  0  0  0  0  0
    3.3100    2.8133   20.3458 C   0  0  0  0  0  0  0  0  0  0  0  0
    5.9220    4.0708   27.7047 H   0  0  0  0  0  0  0  0  0  0  0  0
    7.2077    2.2367   26.9104 H   0  0  0  0  0  0  0  0  0  0  0  0
    8.3340    4.4642   22.4931 H   0  0  0  0  0  0  0  0  0  0  0  0
    7.0461    3.5210   22.1492 H   0  0  0  0  0  0  0  0  0  0  0  0
    9.5931    2.6906   23.0729 H   0  0  0  0  0  0  0  0  0  0  0  0
    6.9746    0.4277   23.0506 H   0  0  0  0  0  0  0  0  0  0  0  0
    6.5502   -1.2207   21.4951 H   0  0  0  0  0  0  0  0  0  0  0  0
    8.0324   -0.9683   20.8580 H   0  0  0  0  0  0  0  0  0  0  0  0
    7.9551   -0.5856   18.5870 H   0  0  0  0  0  0  0  0  0  0  0  0
    5.2767    1.8973   21.8841 H   0  0  0  0  0  0  0  0  0  0  0  0
    4.8145    0.3322   21.9439 H   0  0  0  0  0  0  0  0  0  0  0  0
    5.1041    1.7329   16.8184 H   0  0  0  0  0  0  0  0  0  0  0  0
    2.8318    1.7504   18.6330 H   0  0  0  0  0  0  0  0  0  0  0  0
    3.6904    3.1061   18.3305 H   0  0  0  0  0  0  0  0  0  0  0  0
    2.9373    1.8379   22.1539 H   0  0  0  0  0  0  0  0  0  0  0  0
    2.7847    0.8580   20.8565 H   0  0  0  0  0  0  0  0  0  0  0  0
    2.4149    3.2583   20.3767 H   0  0  0  0  0  0  0  0  0  0  0  0
    4.0151    3.4627   20.6304 H   0  0  0  0  0  0  0  0  0  0  0  0
  1  2  1  0  0  0  0
  2  3  2  0  0  0  0
  2  4  1  0  0  0  0
  3  5  1  0  0  0  0
  3  6  1  0  0  0  0
  4  7  2  0  0  0  0
  6  8  2  0  0  0  0
  6  9  1  0  0  0  0
  8 10  1  0  0  0  0
  9 11  1  0  0  0  0
 11 12  1  0  0  0  0
 12 13  2  0  0  0  0
 12 14  1  0  0  0  0
 14 15  1  0  0  0  0
 15 16  1  0  0  0  0
 16 17  2  0  0  0  0
 16 18  1  0  0  0  0
 17 19  1  0  0  0  0
 17 20  1  0  0  0  0
 18 21  2  0  0  0  0
 19 22  2  0  0  0  0
 19 23  1  0  0  0  0
 20 24  1  0  0  0  0
 23 25  1  0  0  0  0
  7  8  1  0  0  0  0
 10 11  1  0  0  0  0
 21 22  1  0  0  0  0
 24 25  1  0  0  0  0
  4 26  1  0  0  0  0
  7 27  1  0  0  0  0
  9 28  1  0  0  0  0
  9 29  1  0  0  0  0
 11 30  1  0  0  0  0
 14 31  1  0  0  0  0
 15 32  1  0  0  0  0
 15 33  1  0  0  0  0
 18 34  1  0  0  0  0
 20 35  1  0  0  0  0
 20 36  1  0  0  0  0
 22 37  1  0  0  0  0
 23 38  1  0  0  0  0
 23 39  1  0  0  0  0
 24 40  1  0  0  0  0
 24 41  1  0  0  0  0
 25 42  1  0  0  0  0
 25 43  1  0  0  0  0
M  END
> <BIOSOLVEIT.HYDE_ESTIMATED_AFFINITY_LOWER_BOUNDARY [nM]>
89218.600922

> <BIOSOLVEIT.HYDE_ESTIMATED_AFFINITY_UPPER_BOUNDARY [nM]>
8864395.503728

> <BIOSOLVEIT.HYDE_LIGAND_EFFICIENCY range: ++, +, 0, -, -->
--

> <BIOSOLVEIT.HYDE_LIGAND_LIPOPHILIC_EFFICIENCY range: ++, +, 0, -, -->
--

> <BIOSOLVEIT.INTER_CLASH range: red, yellow, green>
green

> <BIOSOLVEIT.INTRA_CLASH range: red, yellow, green>
yellow

> <BIOSOLVEIT.LOGP>
3.3728

> <BIOSOLVEIT.MOLECULAR WEIGHT>
360.814

> <BIOSOLVEIT.MOLECULE_CHECKSUM>
LTE3LjQxNDg7MC42OTY1OTQ=

> <BIOSOLVEIT.TORSION_QUALITY range: red, yellow, green, not rotatable>
green

> <BIOSOLVEIT.TPSA>
51.22

> <BIOSOLVEIT.SEESAR_FAVORITE>
favorite

> <smc_score>
0.688

> <QED_score>
0.913

> <distance>
0.667

> <SimilarityPheSA_1>
0.642

> <Smiles>
O=C(NCc1cncc2c1CCCC2)C1Cc2c(ccc(Cl)c2F)O1

> <Similarity_SkelSpheres>
0.699

> <Cluster No>
367.0

> <QueryID>
MAT-POS-199e2e7c-1

> <SimilarityPheSA>
0.6416

> <Postera series>
3-aminopyridine-like

> <PDB_code>
Mpro-x12000

> <Approach>
DGM_focussed_RL

> <ID>
20210618_663

> <SimilarityPheSA_2>
0.782

> <OPTIBRIUM.logD>
3.34577

> <OPTIBRIUM.BBB category>
+

> <OPTIBRIUM.logP>
3.34577

> <OPTIBRIUM.P-gp category>
no

> <OPTIBRIUM.logS>
1.10716

> <OPTIBRIUM.HIA category>
+

> <OPTIBRIUM.PPB90 category>
high

> <OPTIBRIUM.2D6 affinity category>
high

> <OPTIBRIUM.hERG pIC50>
4.67952

> <OPTIBRIUM.2C9 pKi>
5.31822

> <OPTIBRIUM.BBB log([brain]:[blood])>
-0.230286

> <OPTIBRIUM.logS @ pH7.4>
1.10716

$$$$
Compound 664_1_09
haSeeSAR  07122111353D 1   1.00000     0.00000     0
SeeSAR 11.0.2 hazemaj
 43 46  0  0  0  0            999 V2000
    5.0082    6.5036   26.4905 Cl  0  0  0  0  0  0  0  0  0  0  0  0
    5.9793    5.1281   25.9114 C   0  0  0  0  0  0  0  0  0  0  0  0
    6.4564    5.1140   24.6043 C   0  0  0  0  0  0  0  0  0  0  0  0
    6.2542    4.0635   26.7615 C   0  0  0  0  0  0  0  0  0  0  0  0
    6.1858    6.1364   23.7947 F   0  0  0  0  0  0  0  0  0  0  0  0
    7.1898    3.9992   24.1751 C   0  0  0  0  0  0  0  0  0  0  0  0
    6.9980    2.9872   26.2841 C   0  0  0  0  0  0  0  0  0  0  0  0
    7.4635    2.9098   24.9722 C   0  0  0  0  0  0  0  0  0  0  0  0
    7.7726    3.7002   22.8123 C   0  0  0  0  0  0  0  0  0  0  0  0
    8.1316    1.9689   24.2496 O   0  0  0  0  0  0  0  0  0  0  0  0
    8.6196    2.4674   23.0221 C   0  0  1  0  0  0  0  0  0  0  0  0
    8.3345    1.4325   21.9486 C   0  0  0  0  0  0  0  0  0  0  0  0
    8.9234    1.4872   20.8691 O   0  0  0  0  0  0  0  0  0  0  0  0
    7.4530    0.4719   22.1735 N   0  0  0  0  0  0  0  0  0  0  0  0
    7.1769   -0.5303   21.1341 C   0  0  0  0  0  0  0  0  0  0  0  0
    6.5421    0.1509   19.9274 C   0  0  0  0  0  0  0  0  0  0  0  0
    5.3996    0.9387   20.0455 C   0  0  0  0  0  0  0  0  0  0  0  0
    7.1327   -0.0240   18.6789 C   0  0  0  0  0  0  0  0  0  0  0  0
    4.8745    1.4956   18.8816 C   0  0  0  0  0  0  0  0  0  0  0  0
    4.7710    1.1765   21.4100 C   0  0  0  0  0  0  0  0  0  0  0  0
    6.5941    0.5645   17.5985 N   0  0  0  0  0  0  0  0  0  0  0  0
    5.4818    1.3165   17.6452 C   0  0  0  0  0  0  0  0  0  0  0  0
    3.5963    2.3180   18.9387 C   0  0  0  0  0  0  0  0  0  0  0  0
    3.3199    1.5994   21.2614 C   0  0  0  0  0  0  0  0  0  0  0  0
    3.3100    2.8133   20.3459 C   0  0  0  0  0  0  0  0  0  0  0  0
    5.9220    4.0702   27.7046 H   0  0  0  0  0  0  0  0  0  0  0  0
    7.2076    2.2362   26.9104 H   0  0  0  0  0  0  0  0  0  0  0  0
    8.3339    4.4639   22.4932 H   0  0  0  0  0  0  0  0  0  0  0  0
    7.0459    3.5207   22.1493 H   0  0  0  0  0  0  0  0  0  0  0  0
    9.5930    2.6905   23.0729 H   0  0  0  0  0  0  0  0  0  0  0  0
    6.9746    0.4275   23.0505 H   0  0  0  0  0  0  0  0  0  0  0  0
    6.5501   -1.2209   21.4950 H   0  0  0  0  0  0  0  0  0  0  0  0
    8.0323   -0.9684   20.8578 H   0  0  0  0  0  0  0  0  0  0  0  0
    7.9549   -0.5857   18.5869 H   0  0  0  0  0  0  0  0  0  0  0  0
    5.2767    1.8971   21.8841 H   0  0  0  0  0  0  0  0  0  0  0  0
    4.8144    0.3321   21.9439 H   0  0  0  0  0  0  0  0  0  0  0  0
    5.1040    1.7329   16.8184 H   0  0  0  0  0  0  0  0  0  0  0  0
    2.8317    1.7505   18.6331 H   0  0  0  0  0  0  0  0  0  0  0  0
    3.6904    3.1062   18.3306 H   0  0  0  0  0  0  0  0  0  0  0  0
    2.9373    1.8378   22.1540 H   0  0  0  0  0  0  0  0  0  0  0  0
    2.7846    0.8581   20.8566 H   0  0  0  0  0  0  0  0  0  0  0  0
    2.4150    3.2583   20.3768 H   0  0  0  0  0  0  0  0  0  0  0  0
    4.0152    3.4627   20.6305 H   0  0  0  0  0  0  0  0  0  0  0  0
  1  2  1  0  0  0  0
  2  3  2  0  0  0  0
  2  4  1  0  0  0  0
  3  5  1  0  0  0  0
  3  6  1  0  0  0  0
  4  7  2  0  0  0  0
  6  8  2  0  0  0  0
  6  9  1  0  0  0  0
  8 10  1  0  0  0  0
  9 11  1  0  0  0  0
 11 12  1  0  0  0  0
 12 13  2  0  0  0  0
 12 14  1  0  0  0  0
 14 15  1  0  0  0  0
 15 16  1  0  0  0  0
 16 17  2  0  0  0  0
 16 18  1  0  0  0  0
 17 19  1  0  0  0  0
 17 20  1  0  0  0  0
 18 21  2  0  0  0  0
 19 22  2  0  0  0  0
 19 23  1  0  0  0  0
 20 24  1  0  0  0  0
 23 25  1  0  0  0  0
  7  8  1  0  0  0  0
 10 11  1  0  0  0  0
 21 22  1  0  0  0  0
 24 25  1  0  0  0  0
  4 26  1  0  0  0  0
  7 27  1  0  0  0  0
  9 28  1  0  0  0  0
  9 29  1  0  0  0  0
 11 30  1  0  0  0  0
 14 31  1  0  0  0  0
 15 32  1  0  0  0  0
 15 33  1  0  0  0  0
 18 34  1  0  0  0  0
 20 35  1  0  0  0  0
 20 36  1  0  0  0  0
 22 37  1  0  0  0  0
 23 38  1  0  0  0  0
 23 39  1  0  0  0  0
 24 40  1  0  0  0  0
 24 41  1  0  0  0  0
 25 42  1  0  0  0  0
 25 43  1  0  0  0  0
M  END
> <BIOSOLVEIT.HYDE_ESTIMATED_AFFINITY_LOWER_BOUNDARY [nM]>
89235.525110

> <BIOSOLVEIT.HYDE_ESTIMATED_AFFINITY_UPPER_BOUNDARY [nM]>
8866077.021834

> <BIOSOLVEIT.HYDE_LIGAND_EFFICIENCY range: ++, +, 0, -, -->
--

> <BIOSOLVEIT.HYDE_LIGAND_LIPOPHILIC_EFFICIENCY range: ++, +, 0, -, -->
--

> <BIOSOLVEIT.INTER_CLASH range: red, yellow, green>
green

> <BIOSOLVEIT.INTRA_CLASH range: red, yellow, green>
yellow

> <BIOSOLVEIT.LOGP>
3.3728

> <BIOSOLVEIT.MOLECULAR WEIGHT>
360.814

> <BIOSOLVEIT.MOLECULE_CHECKSUM>
LTE3LjQxNDQ7MC42OTY1NzU=

> <BIOSOLVEIT.TORSION_QUALITY range: red, yellow, green, not rotatable>
green

> <BIOSOLVEIT.TPSA>
51.22

> <BIOSOLVEIT.SEESAR_FAVORITE>
favorite

> <smc_score>
0.688

> <QED_score>
0.913

> <distance>
0.667

> <SimilarityPheSA_1>
0.642

> <Smiles>
O=C(NCc1cncc2c1CCCC2)C1Cc2c(ccc(Cl)c2F)O1

> <Similarity_SkelSpheres>
0.699

> <Cluster No>
367.0

> <QueryID>
MAT-POS-199e2e7c-1

> <SimilarityPheSA>
0.6416

> <Postera series>
3-aminopyridine-like

> <PDB_code>
Mpro-x12000

> <Approach>
DGM_focussed_RL

> <ID>
20210618_663

> <SimilarityPheSA_2>
0.782

> <OPTIBRIUM.logD>
3.34577

> <OPTIBRIUM.BBB category>
+

> <OPTIBRIUM.logP>
3.34577

> <OPTIBRIUM.P-gp category>
no

> <OPTIBRIUM.logS>
1.10716

> <OPTIBRIUM.HIA category>
+

> <OPTIBRIUM.PPB90 category>
high

> <OPTIBRIUM.2D6 affinity category>
high

> <OPTIBRIUM.hERG pIC50>
4.67952

> <OPTIBRIUM.2C9 pKi>
5.31822

> <OPTIBRIUM.BBB log([brain]:[blood])>
-0.230286

> <OPTIBRIUM.logS @ pH7.4>
1.10716

$$$$
Compound 664_1_03
haSeeSAR  07122111353D 1   1.00000     0.00000     0
SeeSAR 11.0.2 hazemaj
 43 46  0  0  0  0            999 V2000
    5.0079    6.5041   26.4902 Cl  0  0  0  0  0  0  0  0  0  0  0  0
    5.9791    5.1287   25.9111 C   0  0  0  0  0  0  0  0  0  0  0  0
    6.4563    5.1145   24.6041 C   0  0  0  0  0  0  0  0  0  0  0  0
    6.2540    4.0641   26.7613 C   0  0  0  0  0  0  0  0  0  0  0  0
    6.1857    6.1369   23.7944 F   0  0  0  0  0  0  0  0  0  0  0  0
    7.1897    3.9996   24.1749 C   0  0  0  0  0  0  0  0  0  0  0  0
    6.9980    2.9878   26.2841 C   0  0  0  0  0  0  0  0  0  0  0  0
    7.4634    2.9104   24.9721 C   0  0  0  0  0  0  0  0  0  0  0  0
    7.7726    3.7006   22.8122 C   0  0  0  0  0  0  0  0  0  0  0  0
    8.1316    1.9695   24.2496 O   0  0  0  0  0  0  0  0  0  0  0  0
    8.6196    2.4679   23.0220 C   0  0  1  0  0  0  0  0  0  0  0  0
    8.3346    1.4329   21.9487 C   0  0  0  0  0  0  0  0  0  0  0  0
    8.9235    1.4874   20.8691 O   0  0  0  0  0  0  0  0  0  0  0  0
    7.4531    0.4723   22.1735 N   0  0  0  0  0  0  0  0  0  0  0  0
    7.1771   -0.5299   21.1342 C   0  0  0  0  0  0  0  0  0  0  0  0
    6.5423    0.1511   19.9275 C   0  0  0  0  0  0  0  0  0  0  0  0
    5.3997    0.9389   20.0455 C   0  0  0  0  0  0  0  0  0  0  0  0
    7.1329   -0.0239   18.6789 C   0  0  0  0  0  0  0  0  0  0  0  0
    4.8745    1.4956   18.8816 C   0  0  0  0  0  0  0  0  0  0  0  0
    4.7711    1.1767   21.4099 C   0  0  0  0  0  0  0  0  0  0  0  0
    6.5942    0.5645   17.5985 N   0  0  0  0  0  0  0  0  0  0  0  0
    5.4819    1.3164   17.6453 C   0  0  0  0  0  0  0  0  0  0  0  0
    3.5962    2.3179   18.9386 C   0  0  0  0  0  0  0  0  0  0  0  0
    3.3199    1.5994   21.2613 C   0  0  0  0  0  0  0  0  0  0  0  0
    3.3100    2.8133   20.3456 C   0  0  0  0  0  0  0  0  0  0  0  0
    5.9218    4.0708   27.7045 H   0  0  0  0  0  0  0  0  0  0  0  0
    7.2075    2.2369   26.9103 H   0  0  0  0  0  0  0  0  0  0  0  0
    8.3339    4.4644   22.4930 H   0  0  0  0  0  0  0  0  0  0  0  0
    7.0459    3.5210   22.1491 H   0  0  0  0  0  0  0  0  0  0  0  0
    9.5930    2.6909   23.0729 H   0  0  0  0  0  0  0  0  0  0  0  0
    6.9746    0.4279   23.0505 H   0  0  0  0  0  0  0  0  0  0  0  0
    6.5504   -1.2206   21.4951 H   0  0  0  0  0  0  0  0  0  0  0  0
    8.0325   -0.9680   20.8580 H   0  0  0  0  0  0  0  0  0  0  0  0
    7.9551   -0.5856   18.5870 H   0  0  0  0  0  0  0  0  0  0  0  0
    5.2768    1.8974   21.8840 H   0  0  0  0  0  0  0  0  0  0  0  0
    4.8146    0.3323   21.9439 H   0  0  0  0  0  0  0  0  0  0  0  0
    5.1041    1.7328   16.8183 H   0  0  0  0  0  0  0  0  0  0  0  0
    2.8318    1.7504   18.6330 H   0  0  0  0  0  0  0  0  0  0  0  0
    3.6903    3.1060   18.3304 H   0  0  0  0  0  0  0  0  0  0  0  0
    2.9373    1.8379   22.1539 H   0  0  0  0  0  0  0  0  0  0  0  0
    2.7847    0.8580   20.8566 H   0  0  0  0  0  0  0  0  0  0  0  0
    2.4149    3.2583   20.3766 H   0  0  0  0  0  0  0  0  0  0  0  0
    4.0151    3.4628   20.6303 H   0  0  0  0  0  0  0  0  0  0  0  0
  1  2  1  0  0  0  0
  2  3  2  0  0  0  0
  2  4  1  0  0  0  0
  3  5  1  0  0  0  0
  3  6  1  0  0  0  0
  4  7  2  0  0  0  0
  6  8  2  0  0  0  0
  6  9  1  0  0  0  0
  8 10  1  0  0  0  0
  9 11  1  0  0  0  0
 11 12  1  0  0  0  0
 12 13  2  0  0  0  0
 12 14  1  0  0  0  0
 14 15  1  0  0  0  0
 15 16  1  0  0  0  0
 16 17  2  0  0  0  0
 16 18  1  0  0  0  0
 17 19  1  0  0  0  0
 17 20  1  0  0  0  0
 18 21  2  0  0  0  0
 19 22  2  0  0  0  0
 19 23  1  0  0  0  0
 20 24  1  0  0  0  0
 23 25  1  0  0  0  0
  7  8  1  0  0  0  0
 10 11  1  0  0  0  0
 21 22  1  0  0  0  0
 24 25  1  0  0  0  0
  4 26  1  0  0  0  0
  7 27  1  0  0  0  0
  9 28  1  0  0  0  0
  9 29  1  0  0  0  0
 11 30  1  0  0  0  0
 14 31  1  0  0  0  0
 15 32  1  0  0  0  0
 15 33  1  0  0  0  0
 18 34  1  0  0  0  0
 20 35  1  0  0  0  0
 20 36  1  0  0  0  0
 22 37  1  0  0  0  0
 23 38  1  0  0  0  0
 23 39  1  0  0  0  0
 24 40  1  0  0  0  0
 24 41  1  0  0  0  0
 25 42  1  0  0  0  0
 25 43  1  0  0  0  0
M  END
> <BIOSOLVEIT.HYDE_ESTIMATED_AFFINITY_LOWER_BOUNDARY [nM]>
89238.442251

> <BIOSOLVEIT.HYDE_ESTIMATED_AFFINITY_UPPER_BOUNDARY [nM]>
8866366.857015

> <BIOSOLVEIT.HYDE_LIGAND_EFFICIENCY range: ++, +, 0, -, -->
--

> <BIOSOLVEIT.HYDE_LIGAND_LIPOPHILIC_EFFICIENCY range: ++, +, 0, -, -->
--

> <BIOSOLVEIT.INTER_CLASH range: red, yellow, green>
green

> <BIOSOLVEIT.INTRA_CLASH range: red, yellow, green>
yellow

> <BIOSOLVEIT.LOGP>
3.3728

> <BIOSOLVEIT.MOLECULAR WEIGHT>
360.814

> <BIOSOLVEIT.MOLECULE_CHECKSUM>
LTE3LjQxNDM7MC42OTY1NzE=

> <BIOSOLVEIT.TORSION_QUALITY range: red, yellow, green, not rotatable>
green

> <BIOSOLVEIT.TPSA>
51.22

> <BIOSOLVEIT.SEESAR_FAVORITE>
favorite

> <smc_score>
0.688

> <QED_score>
0.913

> <distance>
0.667

> <SimilarityPheSA_1>
0.642

> <Smiles>
O=C(NCc1cncc2c1CCCC2)C1Cc2c(ccc(Cl)c2F)O1

> <Similarity_SkelSpheres>
0.699

> <Cluster No>
367.0

> <QueryID>
MAT-POS-199e2e7c-1

> <SimilarityPheSA>
0.6416

> <Postera series>
3-aminopyridine-like

> <PDB_code>
Mpro-x12000

> <Approach>
DGM_focussed_RL

> <ID>
20210618_663

> <SimilarityPheSA_2>
0.782

> <OPTIBRIUM.logD>
3.34577

> <OPTIBRIUM.BBB category>
+

> <OPTIBRIUM.logP>
3.34577

> <OPTIBRIUM.P-gp category>
no

> <OPTIBRIUM.logS>
1.10716

> <OPTIBRIUM.HIA category>
+

> <OPTIBRIUM.PPB90 category>
high

> <OPTIBRIUM.2D6 affinity category>
high

> <OPTIBRIUM.hERG pIC50>
4.67952

> <OPTIBRIUM.2C9 pKi>
5.31822

> <OPTIBRIUM.BBB log([brain]:[blood])>
-0.230286

> <OPTIBRIUM.logS @ pH7.4>
1.10716

$$$$
Compound 664_1_10
haSeeSAR  07122111353D 1   1.00000     0.00000     0
SeeSAR 11.0.2 hazemaj
 43 46  0  0  0  0            999 V2000
    5.0083    6.5048   26.4897 Cl  0  0  0  0  0  0  0  0  0  0  0  0
    5.9794    5.1292   25.9108 C   0  0  0  0  0  0  0  0  0  0  0  0
    6.4567    5.1149   24.6038 C   0  0  0  0  0  0  0  0  0  0  0  0
    6.2540    4.0646   26.7611 C   0  0  0  0  0  0  0  0  0  0  0  0
    6.1863    6.1373   23.7940 F   0  0  0  0  0  0  0  0  0  0  0  0
    7.1900    3.9999   24.1747 C   0  0  0  0  0  0  0  0  0  0  0  0
    6.9977    2.9881   26.2838 C   0  0  0  0  0  0  0  0  0  0  0  0
    7.4633    2.9106   24.9720 C   0  0  0  0  0  0  0  0  0  0  0  0
    7.7730    3.7008   22.8122 C   0  0  0  0  0  0  0  0  0  0  0  0
    8.1315    1.9695   24.2496 O   0  0  0  0  0  0  0  0  0  0  0  0
    8.6196    2.4678   23.0221 C   0  0  1  0  0  0  0  0  0  0  0  0
    8.3346    1.4329   21.9487 C   0  0  0  0  0  0  0  0  0  0  0  0
    8.9236    1.4875   20.8692 O   0  0  0  0  0  0  0  0  0  0  0  0
    7.4531    0.4722   22.1736 N   0  0  0  0  0  0  0  0  0  0  0  0
    7.1772   -0.5300   21.1343 C   0  0  0  0  0  0  0  0  0  0  0  0
    6.5423    0.1510   19.9275 C   0  0  0  0  0  0  0  0  0  0  0  0
    5.3997    0.9388   20.0456 C   0  0  0  0  0  0  0  0  0  0  0  0
    7.1329   -0.0239   18.6790 C   0  0  0  0  0  0  0  0  0  0  0  0
    4.8746    1.4956   18.8817 C   0  0  0  0  0  0  0  0  0  0  0  0
    4.7711    1.1766   21.4100 C   0  0  0  0  0  0  0  0  0  0  0  0
    6.5942    0.5645   17.5986 N   0  0  0  0  0  0  0  0  0  0  0  0
    5.4819    1.3164   17.6453 C   0  0  0  0  0  0  0  0  0  0  0  0
    3.5963    2.3179   18.9387 C   0  0  0  0  0  0  0  0  0  0  0  0
    3.3199    1.5993   21.2614 C   0  0  0  0  0  0  0  0  0  0  0  0
    3.3100    2.8132   20.3458 C   0  0  0  0  0  0  0  0  0  0  0  0
    5.9216    4.0715   27.7042 H   0  0  0  0  0  0  0  0  0  0  0  0
    7.2071    2.2372   26.9102 H   0  0  0  0  0  0  0  0  0  0  0  0
    8.3343    4.4643   22.4929 H   0  0  0  0  0  0  0  0  0  0  0  0
    7.0463    3.5213   22.1490 H   0  0  0  0  0  0  0  0  0  0  0  0
    9.5931    2.6907   23.0731 H   0  0  0  0  0  0  0  0  0  0  0  0
    6.9747    0.4279   23.0506 H   0  0  0  0  0  0  0  0  0  0  0  0
    6.5504   -1.2207   21.4952 H   0  0  0  0  0  0  0  0  0  0  0  0
    8.0326   -0.9681   20.8580 H   0  0  0  0  0  0  0  0  0  0  0  0
    7.9551   -0.5856   18.5870 H   0  0  0  0  0  0  0  0  0  0  0  0
    5.2768    1.8973   21.8841 H   0  0  0  0  0  0  0  0  0  0  0  0
    4.8146    0.3322   21.9440 H   0  0  0  0  0  0  0  0  0  0  0  0
    5.1040    1.7327   16.8184 H   0  0  0  0  0  0  0  0  0  0  0  0
    2.8318    1.7503   18.6331 H   0  0  0  0  0  0  0  0  0  0  0  0
    3.6904    3.1060   18.3305 H   0  0  0  0  0  0  0  0  0  0  0  0
    2.9374    1.8378   22.1540 H   0  0  0  0  0  0  0  0  0  0  0  0
    2.7848    0.8580   20.8567 H   0  0  0  0  0  0  0  0  0  0  0  0
    2.4149    3.2582   20.3768 H   0  0  0  0  0  0  0  0  0  0  0  0
    4.0151    3.4627   20.6304 H   0  0  0  0  0  0  0  0  0  0  0  0
  1  2  1  0  0  0  0
  2  3  2  0  0  0  0
  2  4  1  0  0  0  0
  3  5  1  0  0  0  0
  3  6  1  0  0  0  0
  4  7  2  0  0  0  0
  6  8  2  0  0  0  0
  6  9  1  0  0  0  0
  8 10  1  0  0  0  0
  9 11  1  0  0  0  0
 11 12  1  0  0  0  0
 12 13  2  0  0  0  0
 12 14  1  0  0  0  0
 14 15  1  0  0  0  0
 15 16  1  0  0  0  0
 16 17  2  0  0  0  0
 16 18  1  0  0  0  0
 17 19  1  0  0  0  0
 17 20  1  0  0  0  0
 18 21  2  0  0  0  0
 19 22  2  0  0  0  0
 19 23  1  0  0  0  0
 20 24  1  0  0  0  0
 23 25  1  0  0  0  0
  7  8  1  0  0  0  0
 10 11  1  0  0  0  0
 21 22  1  0  0  0  0
 24 25  1  0  0  0  0
  4 26  1  0  0  0  0
  7 27  1  0  0  0  0
  9 28  1  0  0  0  0
  9 29  1  0  0  0  0
 11 30  1  0  0  0  0
 14 31  1  0  0  0  0
 15 32  1  0  0  0  0
 15 33  1  0  0  0  0
 18 34  1  0  0  0  0
 20 35  1  0  0  0  0
 20 36  1  0  0  0  0
 22 37  1  0  0  0  0
 23 38  1  0  0  0  0
 23 39  1  0  0  0  0
 24 40  1  0  0  0  0
 24 41  1  0  0  0  0
 25 42  1  0  0  0  0
 25 43  1  0  0  0  0
M  END
> <BIOSOLVEIT.HYDE_ESTIMATED_AFFINITY_LOWER_BOUNDARY [nM]>
89282.709999

> <BIOSOLVEIT.HYDE_ESTIMATED_AFFINITY_UPPER_BOUNDARY [nM]>
8870765.119566

> <BIOSOLVEIT.HYDE_LIGAND_EFFICIENCY range: ++, +, 0, -, -->
--

> <BIOSOLVEIT.HYDE_LIGAND_LIPOPHILIC_EFFICIENCY range: ++, +, 0, -, -->
--

> <BIOSOLVEIT.INTER_CLASH range: red, yellow, green>
green

> <BIOSOLVEIT.INTRA_CLASH range: red, yellow, green>
yellow

> <BIOSOLVEIT.LOGP>
3.3728

> <BIOSOLVEIT.MOLECULAR WEIGHT>
360.814

> <BIOSOLVEIT.MOLECULE_CHECKSUM>
LTE3LjQxMzE7MC42OTY1MjI=

> <BIOSOLVEIT.TORSION_QUALITY range: red, yellow, green, not rotatable>
green

> <BIOSOLVEIT.TPSA>
51.22

> <BIOSOLVEIT.SEESAR_FAVORITE>
favorite

> <smc_score>
0.688

> <QED_score>
0.913

> <distance>
0.667

> <SimilarityPheSA_1>
0.642

> <Smiles>
O=C(NCc1cncc2c1CCCC2)C1Cc2c(ccc(Cl)c2F)O1

> <Similarity_SkelSpheres>
0.699

> <Cluster No>
367.0

> <QueryID>
MAT-POS-199e2e7c-1

> <SimilarityPheSA>
0.6416

> <Postera series>
3-aminopyridine-like

> <PDB_code>
Mpro-x12000

> <Approach>
DGM_focussed_RL

> <ID>
20210618_663

> <SimilarityPheSA_2>
0.782

> <OPTIBRIUM.logD>
3.34577

> <OPTIBRIUM.BBB category>
+

> <OPTIBRIUM.logP>
3.34577

> <OPTIBRIUM.P-gp category>
no

> <OPTIBRIUM.logS>
1.10716

> <OPTIBRIUM.HIA category>
+

> <OPTIBRIUM.PPB90 category>
high

> <OPTIBRIUM.2D6 affinity category>
high

> <OPTIBRIUM.hERG pIC50>
4.67952

> <OPTIBRIUM.2C9 pKi>
5.31822

> <OPTIBRIUM.BBB log([brain]:[blood])>
-0.230286

> <OPTIBRIUM.logS @ pH7.4>
1.10716

$$$$
Compound 723_1_08
haSeeSAR  07122111353D 1   1.00000     0.00000     0
SeeSAR 11.0.2 hazemaj
 36 39  0  0  0  0            999 V2000
    6.3433    1.0919   23.7188 Cl  0  0  0  0  0  0  0  0  0  0  0  0
    7.2711   -0.2949   24.3367 C   0  0  0  0  0  0  0  0  0  0  0  0
    8.3075   -0.8775   23.6120 C   0  0  0  0  0  0  0  0  0  0  0  0
    6.9155   -0.7654   25.5950 C   0  0  0  0  0  0  0  0  0  0  0  0
    8.8624   -0.6223   22.3579 N   0  0  0  0  0  0  0  0  0  0  0  0
    8.9558   -1.9555   24.1833 C   0  0  0  0  0  0  0  0  0  0  0  0
    7.5988   -1.8404   26.1531 C   0  0  0  0  0  0  0  0  0  0  0  0
    8.2803    0.0609   21.2756 C   0  0  0  0  0  0  0  0  0  0  0  0
   10.1940   -1.2254   22.3131 C   0  0  0  0  0  0  0  0  0  0  0  0
    8.6342   -2.4444   25.4467 C   0  0  0  0  0  0  0  0  0  0  0  0
    9.9870   -2.4377   23.1960 C   0  0  0  0  0  0  0  0  0  0  0  0
    8.8328    1.0145   20.8008 O   0  0  0  0  0  0  0  0  0  0  0  0
    7.0824   -0.3623   20.7629 N   0  0  0  0  0  0  0  0  0  0  0  0
    9.5221   -3.8201   26.1433 Cl  0  0  0  0  0  0  0  0  0  0  0  0
    6.5022    0.3184   19.6842 C   0  0  0  0  0  0  0  0  0  0  0  0
    5.3021    1.0063   19.8786 C   0  0  0  0  0  0  0  0  0  0  0  0
    7.0893    0.3020   18.4228 C   0  0  0  0  0  0  0  0  0  0  0  0
    4.7539    1.6844   18.8211 C   0  0  0  0  0  0  0  0  0  0  0  0
    4.3922    1.2275   21.0772 C   0  0  0  0  0  0  0  0  0  0  0  0
    6.5054    0.9574   17.4067 N   0  0  0  0  0  0  0  0  0  0  0  0
    3.5503    2.3637   19.2479 C   0  0  0  0  0  0  0  0  0  0  0  0
    5.3662    1.6449   17.5723 C   0  0  0  0  0  0  0  0  0  0  0  0
    3.3253    2.1104   20.5987 N   0  0  0  0  0  0  0  0  0  0  0  0
    2.8185    3.0488   18.5494 O   0  0  0  0  0  0  0  0  0  0  0  0
    6.1689   -0.3312   26.0989 H   0  0  0  0  0  0  0  0  0  0  0  0
    7.3466   -2.1784   27.0598 H   0  0  0  0  0  0  0  0  0  0  0  0
   10.8887   -0.6116   22.6880 H   0  0  0  0  0  0  0  0  0  0  0  0
   10.4481   -1.4874   21.3821 H   0  0  0  0  0  0  0  0  0  0  0  0
    9.6448   -3.2146   22.6675 H   0  0  0  0  0  0  0  0  0  0  0  0
   10.8353   -2.6965   23.6579 H   0  0  0  0  0  0  0  0  0  0  0  0
    6.6219   -1.1570   21.1584 H   0  0  0  0  0  0  0  0  0  0  0  0
    7.9432   -0.1965   18.2734 H   0  0  0  0  0  0  0  0  0  0  0  0
    4.8965    1.6612   21.8239 H   0  0  0  0  0  0  0  0  0  0  0  0
    4.0116    0.3583   21.3926 H   0  0  0  0  0  0  0  0  0  0  0  0
    4.9569    2.1287   16.7987 H   0  0  0  0  0  0  0  0  0  0  0  0
    2.5686    2.4683   21.1459 H   0  0  0  0  0  0  0  0  0  0  0  0
  1  2  1  0  0  0  0
  2  3  2  0  0  0  0
  2  4  1  0  0  0  0
  3  5  1  0  0  0  0
  3  6  1  0  0  0  0
  4  7  2  0  0  0  0
  5  8  1  0  0  0  0
  5  9  1  0  0  0  0
  6 10  2  0  0  0  0
  6 11  1  0  0  0  0
  8 12  2  0  0  0  0
  8 13  1  0  0  0  0
 10 14  1  0  0  0  0
 13 15  1  0  0  0  0
 15 16  2  0  0  0  0
 15 17  1  0  0  0  0
 16 18  1  0  0  0  0
 16 19  1  0  0  0  0
 17 20  2  0  0  0  0
 18 21  1  0  0  0  0
 18 22  2  0  0  0  0
 19 23  1  0  0  0  0
 21 24  2  0  0  0  0
  7 10  1  0  0  0  0
  9 11  1  0  0  0  0
 20 22  1  0  0  0  0
 21 23  1  0  0  0  0
  4 25  1  0  0  0  0
  7 26  1  0  0  0  0
  9 27  1  0  0  0  0
  9 28  1  0  0  0  0
 11 29  1  0  0  0  0
 11 30  1  0  0  0  0
 13 31  1  0  0  0  0
 17 32  1  0  0  0  0
 19 33  1  0  0  0  0
 19 34  1  0  0  0  0
 22 35  1  0  0  0  0
 23 36  1  0  0  0  0
M  END
> <BIOSOLVEIT.HYDE_ESTIMATED_AFFINITY_LOWER_BOUNDARY [nM]>
90316.980718

> <BIOSOLVEIT.HYDE_ESTIMATED_AFFINITY_UPPER_BOUNDARY [nM]>
8973526.030571

> <BIOSOLVEIT.HYDE_LIGAND_EFFICIENCY range: ++, +, 0, -, -->
--

> <BIOSOLVEIT.HYDE_LIGAND_LIPOPHILIC_EFFICIENCY range: ++, +, 0, -, -->
--

> <BIOSOLVEIT.INTER_CLASH range: red, yellow, green>
green

> <BIOSOLVEIT.INTRA_CLASH range: red, yellow, green>
green

> <BIOSOLVEIT.LOGP>
3.2264

> <BIOSOLVEIT.MOLECULAR WEIGHT>
363.203

> <BIOSOLVEIT.MOLECULE_CHECKSUM>
LTE3LjM4NDU7MC43MjQzNTQ=

> <BIOSOLVEIT.TORSION_QUALITY range: red, yellow, green, not rotatable>
yellow

> <BIOSOLVEIT.TPSA>
74.33

> <BIOSOLVEIT.SEESAR_FAVORITE>
favorite

> <smc_score>
0.75

> <QED_score>
0.817

> <distance>
0.685

> <SimilarityPheSA_1>
0.671

> <Smiles>
O=C1NCc2c(NC(=O)N3CCc4c(Cl)ccc(Cl)c43)cncc21

> <Similarity_SkelSpheres>
0.633

> <Cluster No>
412.0

> <QueryID>
ALP-POS-ce760d3f-2

> <SimilarityPheSA>
0.6708

> <Postera series>
3-aminopyridine-like

> <PDB_code>
Mpro-x12659

> <Approach>
DGM_focussed_RL

> <ID>
20210618_722

> <SimilarityPheSA_2>
0.761

> <OPTIBRIUM.logD>
2.25628

> <OPTIBRIUM.BBB category>
-

> <OPTIBRIUM.logP>
2.25628

> <OPTIBRIUM.P-gp category>
no

> <OPTIBRIUM.logS>
1.27111

> <OPTIBRIUM.HIA category>
+

> <OPTIBRIUM.PPB90 category>
high

> <OPTIBRIUM.2D6 affinity category>
medium

> <OPTIBRIUM.hERG pIC50>
4.67445

> <OPTIBRIUM.2C9 pKi>
5.60181

> <OPTIBRIUM.BBB log([brain]:[blood])>
0.329193

> <OPTIBRIUM.logS @ pH7.4>
1.27111

$$$$
Compound 330_1_03
haSeeSAR  07122111353D 1   1.00000     0.00000     0
SeeSAR 11.0.2 hazemaj
 47 50  0  0  0  0            999 V2000
    8.3239   -3.6363   30.5162 Cl  0  0  0  0  0  0  0  0  0  0  0  0
    8.3424   -4.0963   28.7964 C   0  0  0  0  0  0  0  0  0  0  0  0
    9.2329   -5.0643   28.3447 C   0  0  0  0  0  0  0  0  0  0  0  0
    7.4601   -3.4814   27.9154 C   0  0  0  0  0  0  0  0  0  0  0  0
   10.3528   -5.8357   29.4930 Cl  0  0  0  0  0  0  0  0  0  0  0  0
    9.2546   -5.4324   27.0031 C   0  0  0  0  0  0  0  0  0  0  0  0
    7.4865   -3.8528   26.5758 C   0  0  0  0  0  0  0  0  0  0  0  0
    8.3748   -4.8196   26.1172 C   0  0  0  0  0  0  0  0  0  0  0  0
    6.5285   -3.1911   25.5983 C   0  0  0  0  0  0  0  0  0  0  0  0
    7.1475   -1.9778   25.0520 N   0  0  0  0  0  0  0  0  0  0  0  0
    8.0361   -1.9573   23.9820 C   0  0  0  0  0  0  0  0  0  0  0  0
    6.9625   -0.6043   25.5497 C   0  0  0  0  0  0  0  0  0  0  0  0
    8.4249   -2.9662   23.4117 O   0  0  0  0  0  0  0  0  0  0  0  0
    8.4027   -0.6424   23.6638 N   0  0  0  0  0  0  0  0  0  0  0  0
    7.6505    0.2765   24.5264 C   0  0  0  0  0  0  0  0  0  0  0  0
    9.3621   -0.2569   22.6143 C   0  0  0  0  0  0  0  0  0  0  0  0
    8.6074    0.2944   21.4156 C   0  0  0  0  0  0  0  0  0  0  0  0
    8.9938    1.3260   20.8662 O   0  0  0  0  0  0  0  0  0  0  0  0
    7.5352   -0.3345   20.9627 N   0  0  0  0  0  0  0  0  0  0  0  0
    6.8387    0.1741   19.8568 C   0  0  0  0  0  0  0  0  0  0  0  0
    5.6591    0.8911   20.0562 C   0  0  0  0  0  0  0  0  0  0  0  0
    7.2989   -0.0268   18.5586 C   0  0  0  0  0  0  0  0  0  0  0  0
    4.9503    1.4184   18.9926 C   0  0  0  0  0  0  0  0  0  0  0  0
    4.9161    1.2363   21.3278 C   0  0  0  0  0  0  0  0  0  0  0  0
    6.5991    0.4741   17.5280 N   0  0  0  0  0  0  0  0  0  0  0  0
    3.8281    2.0876   19.4890 N   0  0  0  0  0  0  0  0  0  0  0  0
    5.4684    1.1749   17.7217 C   0  0  0  0  0  0  0  0  0  0  0  0
    4.0458    2.3925   20.9075 C   0  0  0  0  0  0  0  0  0  0  0  0
    6.8189   -2.7855   28.2388 H   0  0  0  0  0  0  0  0  0  0  0  0
    9.8950   -6.1291   26.6798 H   0  0  0  0  0  0  0  0  0  0  0  0
    8.3810   -5.0743   25.1502 H   0  0  0  0  0  0  0  0  0  0  0  0
    5.6823   -2.9489   26.0729 H   0  0  0  0  0  0  0  0  0  0  0  0
    6.3227   -3.8250   24.8526 H   0  0  0  0  0  0  0  0  0  0  0  0
    7.3861   -0.4958   26.4490 H   0  0  0  0  0  0  0  0  0  0  0  0
    5.9899   -0.3799   25.6100 H   0  0  0  0  0  0  0  0  0  0  0  0
    8.2701    0.9187   24.9777 H   0  0  0  0  0  0  0  0  0  0  0  0
    6.9753    0.7845   23.9916 H   0  0  0  0  0  0  0  0  0  0  0  0
    9.8910   -1.0583   22.3353 H   0  0  0  0  0  0  0  0  0  0  0  0
    9.9809    0.4437   22.9695 H   0  0  0  0  0  0  0  0  0  0  0  0
    7.2212   -1.1725   21.4090 H   0  0  0  0  0  0  0  0  0  0  0  0
    8.1421   -0.5390   18.3951 H   0  0  0  0  0  0  0  0  0  0  0  0
    5.5499    1.5081   22.0519 H   0  0  0  0  0  0  0  0  0  0  0  0
    4.3624    0.4650   21.6414 H   0  0  0  0  0  0  0  0  0  0  0  0
    3.0102    2.3206   18.9630 H   0  0  0  0  0  0  0  0  0  0  0  0
    4.9816    1.5344   16.9255 H   0  0  0  0  0  0  0  0  0  0  0  0
    4.5161    3.2669   21.0261 H   0  0  0  0  0  0  0  0  0  0  0  0
    3.1844    2.4058   21.4155 H   0  0  0  0  0  0  0  0  0  0  0  0
  1  2  1  0  0  0  0
  2  3  2  0  0  0  0
  2  4  1  0  0  0  0
  3  5  1  0  0  0  0
  3  6  1  0  0  0  0
  4  7  2  0  0  0  0
  6  8  2  0  0  0  0
  7  9  1  0  0  0  0
  9 10  1  0  0  0  0
 10 11  1  0  0  0  0
 10 12  1  0  0  0  0
 11 13  2  0  0  0  0
 11 14  1  0  0  0  0
 12 15  1  0  0  0  0
 14 16  1  0  0  0  0
 16 17  1  0  0  0  0
 17 18  2  0  0  0  0
 17 19  1  0  0  0  0
 19 20  1  0  0  0  0
 20 21  2  0  0  0  0
 20 22  1  0  0  0  0
 21 23  1  0  0  0  0
 21 24  1  0  0  0  0
 22 25  2  0  0  0  0
 23 26  1  0  0  0  0
 23 27  2  0  0  0  0
 24 28  1  0  0  0  0
  7  8  1  0  0  0  0
 14 15  1  0  0  0  0
 25 27  1  0  0  0  0
 26 28  1  0  0  0  0
  4 29  1  0  0  0  0
  6 30  1  0  0  0  0
  8 31  1  0  0  0  0
  9 32  1  0  0  0  0
  9 33  1  0  0  0  0
 12 34  1  0  0  0  0
 12 35  1  0  0  0  0
 15 36  1  0  0  0  0
 15 37  1  0  0  0  0
 16 38  1  0  0  0  0
 16 39  1  0  0  0  0
 19 40  1  0  0  0  0
 22 41  1  0  0  0  0
 24 42  1  0  0  0  0
 24 43  1  0  0  0  0
 26 44  1  0  0  0  0
 27 45  1  0  0  0  0
 28 46  1  0  0  0  0
 28 47  1  0  0  0  0
M  END
> <BIOSOLVEIT.HYDE_ESTIMATED_AFFINITY_LOWER_BOUNDARY [nM]>
91686.914978

> <BIOSOLVEIT.HYDE_ESTIMATED_AFFINITY_UPPER_BOUNDARY [nM]>
9109637.099014

> <BIOSOLVEIT.HYDE_LIGAND_EFFICIENCY range: ++, +, 0, -, -->
--

> <BIOSOLVEIT.HYDE_LIGAND_LIPOPHILIC_EFFICIENCY range: ++, +, 0, -, -->
--

> <BIOSOLVEIT.INTER_CLASH range: red, yellow, green>
green

> <BIOSOLVEIT.INTRA_CLASH range: red, yellow, green>
green

> <BIOSOLVEIT.LOGP>
3.2327

> <BIOSOLVEIT.MOLECULAR WEIGHT>
420.298

> <BIOSOLVEIT.MOLECULE_CHECKSUM>
LTE3LjM0NzI7MC42MTk1NDI=

> <BIOSOLVEIT.TORSION_QUALITY range: red, yellow, green, not rotatable>
yellow

> <BIOSOLVEIT.TPSA>
77.57

> <BIOSOLVEIT.SEESAR_FAVORITE>
favorite

> <smc_score>
0.875

> <QED_score>
0.779

> <distance>
0.522

> <SimilarityPheSA_1>
0.664

> <Smiles>
O=C(CN1CCN(Cc2ccc(Cl)c(Cl)c2)C1=O)Nc1cncc2c1CCN2

> <Similarity_SkelSpheres>
0.672

> <Cluster No>
165.0

> <QueryID>
PET-UNK-c9c1e0d8-3

> <SimilarityPheSA>
0.6641

> <Postera series>
3-aminopyridine-like

> <PDB_code>
Mpro-x12587

> <Approach>
DGM_focussed_RL

> <ID>
20210618_329

> <SimilarityPheSA_2>
0.672

> <OPTIBRIUM.logD>
2.24858

> <OPTIBRIUM.BBB category>
-

> <OPTIBRIUM.logP>
2.16387

> <OPTIBRIUM.P-gp category>
yes

> <OPTIBRIUM.logS>
2.07129

> <OPTIBRIUM.HIA category>
+

> <OPTIBRIUM.PPB90 category>
high

> <OPTIBRIUM.2D6 affinity category>
medium

> <OPTIBRIUM.hERG pIC50>
4.78816

> <OPTIBRIUM.2C9 pKi>
5.63938

> <OPTIBRIUM.BBB log([brain]:[blood])>
-0.305901

> <OPTIBRIUM.logS @ pH7.4>
1.5639

$$$$
Compound 360_1_07
haSeeSAR  07122111353D 1   1.00000     0.00000     0
SeeSAR 11.0.2 hazemaj
 39 41  0  0  0  0            999 V2000
   12.8747    1.9253   23.3389 Cl  0  0  0  0  0  0  0  0  0  0  0  0
   11.7421    0.6525   22.8244 C   0  0  0  0  0  0  0  0  0  0  0  0
   12.2353   -0.5530   22.3364 C   0  0  0  0  0  0  0  0  0  0  0  0
   10.3712    0.8681   22.9130 C   0  0  0  0  0  0  0  0  0  0  0  0
   13.9926   -0.8172   22.2288 Cl  0  0  0  0  0  0  0  0  0  0  0  0
   11.3676   -1.5606   21.9281 C   0  0  0  0  0  0  0  0  0  0  0  0
    9.5071   -0.1419   22.5042 C   0  0  0  0  0  0  0  0  0  0  0  0
    9.9951   -1.3489   22.0146 C   0  0  0  0  0  0  0  0  0  0  0  0
    8.0075    0.0895   22.5988 C   0  0  0  0  0  0  0  0  0  0  0  0
    7.5154    0.7509   21.3217 C   0  0  0  0  0  0  0  0  0  0  0  0
    8.2281    1.5665   20.7369 O   0  0  0  0  0  0  0  0  0  0  0  0
    6.3210    0.4501   20.8389 N   0  0  0  0  0  0  0  0  0  0  0  0
    6.0242    0.7065   19.4935 C   0  0  0  0  0  0  0  0  0  0  0  0
    4.9135    1.3288   19.0141 N   0  0  0  0  0  0  0  0  0  0  0  0
    6.7953    0.3802   18.4191 C   0  0  0  0  0  0  0  0  0  0  0  0
    5.0229    1.3614   17.7083 N   0  0  0  0  0  0  0  0  0  0  0  0
    3.7902    1.8525   19.8084 C   0  0  0  0  0  0  0  0  0  0  0  0
    6.1090    0.8160   17.3255 N   0  0  0  0  0  0  0  0  0  0  0  0
    2.8002    2.5066   18.8556 C   0  0  0  0  0  0  0  0  0  0  0  0
    4.2762    2.8706   20.8268 C   0  0  0  0  0  0  0  0  0  0  0  0
    2.4321    3.9267   19.2752 C   0  0  0  0  0  0  0  0  0  0  0  0
    3.0871    3.5070   21.5344 C   0  0  0  0  0  0  0  0  0  0  0  0
    2.0852    4.0081   20.6551 O   0  0  0  0  0  0  0  0  0  0  0  0
   10.0133    1.7334   23.2640 H   0  0  0  0  0  0  0  0  0  0  0  0
   11.7255   -2.4258   21.5770 H   0  0  0  0  0  0  0  0  0  0  0  0
    9.3596   -2.0645   21.7249 H   0  0  0  0  0  0  0  0  0  0  0  0
    7.8104    0.6831   23.3789 H   0  0  0  0  0  0  0  0  0  0  0  0
    7.5419   -0.7871   22.7209 H   0  0  0  0  0  0  0  0  0  0  0  0
    5.6300    0.0396   21.4339 H   0  0  0  0  0  0  0  0  0  0  0  0
    7.6814   -0.0832   18.4305 H   0  0  0  0  0  0  0  0  0  0  0  0
    3.3411    1.0965   20.2847 H   0  0  0  0  0  0  0  0  0  0  0  0
    1.9671    1.9540   18.8305 H   0  0  0  0  0  0  0  0  0  0  0  0
    3.2071    2.5377   17.9427 H   0  0  0  0  0  0  0  0  0  0  0  0
    4.8026    3.5811   20.3597 H   0  0  0  0  0  0  0  0  0  0  0  0
    4.8570    2.4140   21.5006 H   0  0  0  0  0  0  0  0  0  0  0  0
    1.6522    4.2320   18.7287 H   0  0  0  0  0  0  0  0  0  0  0  0
    3.2141    4.5259   19.1038 H   0  0  0  0  0  0  0  0  0  0  0  0
    3.4233    4.2658   22.0921 H   0  0  0  0  0  0  0  0  0  0  0  0
    2.6689    2.8179   22.1264 H   0  0  0  0  0  0  0  0  0  0  0  0
  1  2  1  0  0  0  0
  2  3  2  0  0  0  0
  2  4  1  0  0  0  0
  3  5  1  0  0  0  0
  3  6  1  0  0  0  0
  4  7  2  0  0  0  0
  6  8  2  0  0  0  0
  7  9  1  0  0  0  0
  9 10  1  0  0  0  0
 10 11  2  0  0  0  0
 10 12  1  0  0  0  0
 12 13  1  0  0  0  0
 13 14  1  0  0  0  0
 13 15  2  0  0  0  0
 14 16  1  0  0  0  0
 14 17  1  0  0  0  0
 15 18  1  0  0  0  0
 17 19  1  0  0  0  0
 17 20  1  0  0  0  0
 19 21  1  0  0  0  0
 20 22  1  0  0  0  0
 21 23  1  0  0  0  0
  7  8  1  0  0  0  0
 16 18  2  0  0  0  0
 22 23  1  0  0  0  0
  4 24  1  0  0  0  0
  6 25  1  0  0  0  0
  8 26  1  0  0  0  0
  9 27  1  0  0  0  0
  9 28  1  0  0  0  0
 12 29  1  0  0  0  0
 15 30  1  0  0  0  0
 17 31  1  0  0  0  0
 19 32  1  0  0  0  0
 19 33  1  0  0  0  0
 20 34  1  0  0  0  0
 20 35  1  0  0  0  0
 21 36  1  0  0  0  0
 21 37  1  0  0  0  0
 22 38  1  0  0  0  0
 22 39  1  0  0  0  0
M  END
> <BIOSOLVEIT.HYDE_ESTIMATED_AFFINITY_LOWER_BOUNDARY [nM]>
92387.790163

> <BIOSOLVEIT.HYDE_ESTIMATED_AFFINITY_UPPER_BOUNDARY [nM]>
9179273.192540

> <BIOSOLVEIT.HYDE_LIGAND_EFFICIENCY range: ++, +, 0, -, -->
--

> <BIOSOLVEIT.HYDE_LIGAND_LIPOPHILIC_EFFICIENCY range: ++, +, 0, -, -->
--

> <BIOSOLVEIT.INTER_CLASH range: red, yellow, green>
green

> <BIOSOLVEIT.INTRA_CLASH range: red, yellow, green>
green

> <BIOSOLVEIT.LOGP>
3.1176

> <BIOSOLVEIT.MOLECULAR WEIGHT>
355.223

> <BIOSOLVEIT.MOLECULE_CHECKSUM>
LTE3LjMyODM7MC43NTM0MDU=

> <BIOSOLVEIT.TORSION_QUALITY range: red, yellow, green, not rotatable>
green

> <BIOSOLVEIT.TPSA>
69.04

> <BIOSOLVEIT.SEESAR_FAVORITE>
favorite

> <smc_score>
0.563

> <QED_score>
0.915

> <distance>
0.593

> <SimilarityPheSA_1>
0.71

> <Smiles>
O=C(Cc1ccc(Cl)c(Cl)c1)Nc1cnnn1C1CCOCC1

> <Similarity_SkelSpheres>
0.685

> <Cluster No>
182.0

> <QueryID>
JAG-UCB-a3ef7265-20

> <SimilarityPheSA>
0.7104

> <Postera series>
3-aminopyridine-like

> <PDB_code>
Mpro-x10324

> <Approach>
DGM_focussed_RL

> <ID>
20210618_359

> <SimilarityPheSA_2>
0.804

> <OPTIBRIUM.logD>
3.02299

> <OPTIBRIUM.BBB category>
-

> <OPTIBRIUM.logP>
3.02299

> <OPTIBRIUM.P-gp category>
no

> <OPTIBRIUM.logS>
2.32741

> <OPTIBRIUM.HIA category>
+

> <OPTIBRIUM.PPB90 category>
high

> <OPTIBRIUM.2D6 affinity category>
high

> <OPTIBRIUM.hERG pIC50>
4.85157

> <OPTIBRIUM.2C9 pKi>
5.12299

> <OPTIBRIUM.BBB log([brain]:[blood])>
-0.141794

> <OPTIBRIUM.logS @ pH7.4>
2.32741

$$$$
Compound 1_1_07
haSeeSAR  07122111353D 1   1.00000     0.00000     0
SeeSAR 11.0.2 hazemaj
 46 49  0  0  0  0            999 V2000
    6.4538    7.5688   20.8616 Cl  0  0  0  0  0  0  0  0  0  0  0  0
    6.3201    6.1599   21.9403 C   0  0  0  0  0  0  0  0  0  0  0  0
    5.1282    5.9151   22.6090 C   0  0  0  0  0  0  0  0  0  0  0  0
    7.4133    5.3177   22.1067 C   0  0  0  0  0  0  0  0  0  0  0  0
    3.7430    7.0138   22.4016 Cl  0  0  0  0  0  0  0  0  0  0  0  0
    5.0022    4.8077   23.4418 C   0  0  0  0  0  0  0  0  0  0  0  0
    7.2848    4.2203   22.9499 C   0  0  0  0  0  0  0  0  0  0  0  0
    6.0902    3.9596   23.5907 C   0  0  0  0  0  0  0  0  0  0  0  0
    8.3045    3.1553   23.3270 C   0  0  2  0  0  0  0  0  0  0  0  0
    6.1620    2.6736   24.3908 C   0  0  0  0  0  0  0  0  0  0  0  0
    8.5993    2.2382   22.1499 C   0  0  0  0  0  0  0  0  0  0  0  0
    7.6360    2.3089   24.3935 C   0  0  0  0  0  0  0  0  0  0  0  0
    8.3836    2.6231   21.0006 O   0  0  0  0  0  0  0  0  0  0  0  0
    9.0876    1.0270   22.3612 N   0  0  0  0  0  0  0  0  0  0  0  0
    9.3726    0.1406   21.2236 C   0  0  0  0  0  0  0  0  0  0  0  0
    8.1575   -0.7279   20.9412 C   0  0  0  0  0  0  0  0  0  0  0  0
    7.2372   -0.0108   19.9622 C   0  0  0  0  0  0  0  0  0  0  0  0
    6.0003    0.5770   20.2855 C   0  0  0  0  0  0  0  0  0  0  0  0
    7.7513    0.0108   18.6704 C   0  0  0  0  0  0  0  0  0  0  0  0
    5.3987    0.6056   21.5580 C   0  0  0  0  0  0  0  0  0  0  0  0
    5.3111    1.1851   19.2399 C   0  0  0  0  0  0  0  0  0  0  0  0
    7.0388    0.6133   17.7078 N   0  0  0  0  0  0  0  0  0  0  0  0
    5.9975   -0.0018   22.8199 C   0  0  0  0  0  0  0  0  0  0  0  0
    4.1679    1.2091   21.7874 C   0  0  0  0  0  0  0  0  0  0  0  0
    5.8529    1.1891   17.9585 C   0  0  0  0  0  0  0  0  0  0  0  0
    4.0782    1.7954   19.4444 C   0  0  0  0  0  0  0  0  0  0  0  0
    6.4654   -0.4763   23.8058 C   0  0  0  0  0  0  0  0  0  0  0  0
    3.5134    1.8045   20.7150 C   0  0  0  0  0  0  0  0  0  0  0  0
    8.2737    5.4975   21.6298 H   0  0  0  0  0  0  0  0  0  0  0  0
    4.1447    4.6266   23.9233 H   0  0  0  0  0  0  0  0  0  0  0  0
    9.1443    3.5717   23.6751 H   0  0  0  0  0  0  0  0  0  0  0  0
    5.6210    1.9549   23.9539 H   0  0  0  0  0  0  0  0  0  0  0  0
    5.8320    2.8187   25.3236 H   0  0  0  0  0  0  0  0  0  0  0  0
    8.0365    2.5051   25.2886 H   0  0  0  0  0  0  0  0  0  0  0  0
    7.7499    1.3381   24.1829 H   0  0  0  0  0  0  0  0  0  0  0  0
    9.2628    0.7143   23.2948 H   0  0  0  0  0  0  0  0  0  0  0  0
   10.1551   -0.4421   21.4428 H   0  0  0  0  0  0  0  0  0  0  0  0
    9.5832    0.6917   20.4162 H   0  0  0  0  0  0  0  0  0  0  0  0
    7.6661   -0.9013   21.7947 H   0  0  0  0  0  0  0  0  0  0  0  0
    8.4538   -1.5969   20.5447 H   0  0  0  0  0  0  0  0  0  0  0  0
    8.6329   -0.4137   18.4641 H   0  0  0  0  0  0  0  0  0  0  0  0
    3.7629    1.2150   22.7017 H   0  0  0  0  0  0  0  0  0  0  0  0
    5.3510    1.6276   17.2130 H   0  0  0  0  0  0  0  0  0  0  0  0
    3.5993    2.2266   18.6798 H   0  0  0  0  0  0  0  0  0  0  0  0
    6.8586   -0.8749   24.6343 H   0  0  0  0  0  0  0  0  0  0  0  0
    2.6268    2.2442   20.8589 H   0  0  0  0  0  0  0  0  0  0  0  0
  1  2  1  0  0  0  0
  2  3  2  0  0  0  0
  2  4  1  0  0  0  0
  3  5  1  0  0  0  0
  3  6  1  0  0  0  0
  4  7  2  0  0  0  0
  6  8  2  0  0  0  0
  7  9  1  0  0  0  0
  8 10  1  0  0  0  0
  9 11  1  0  0  0  0
  9 12  1  0  0  0  0
 11 13  2  0  0  0  0
 11 14  1  0  0  0  0
 14 15  1  0  0  0  0
 15 16  1  0  0  0  0
 16 17  1  0  0  0  0
 17 18  1  0  0  0  0
 17 19  2  0  0  0  0
 18 20  2  0  0  0  0
 18 21  1  0  0  0  0
 19 22  1  0  0  0  0
 20 23  1  0  0  0  0
 20 24  1  0  0  0  0
 21 25  1  0  0  0  0
 21 26  2  0  0  0  0
 23 27  3  0  0  0  0
 24 28  2  0  0  0  0
  7  8  1  0  0  0  0
 10 12  1  0  0  0  0
 22 25  2  0  0  0  0
 26 28  1  0  0  0  0
  4 29  1  0  0  0  0
  6 30  1  0  0  0  0
  9 31  1  0  0  0  0
 10 32  1  0  0  0  0
 10 33  1  0  0  0  0
 12 34  1  0  0  0  0
 12 35  1  0  0  0  0
 14 36  1  0  0  0  0
 15 37  1  0  0  0  0
 15 38  1  0  0  0  0
 16 39  1  0  0  0  0
 16 40  1  0  0  0  0
 19 41  1  0  0  0  0
 24 42  1  0  0  0  0
 25 43  1  0  0  0  0
 26 44  1  0  0  0  0
 27 45  1  0  0  0  0
 28 46  1  0  0  0  0
M  END
> <BIOSOLVEIT.HYDE_ESTIMATED_AFFINITY_LOWER_BOUNDARY [nM]>
94415.704003

> <BIOSOLVEIT.HYDE_ESTIMATED_AFFINITY_UPPER_BOUNDARY [nM]>
9380758.422544

> <BIOSOLVEIT.HYDE_LIGAND_EFFICIENCY range: ++, +, 0, -, -->
--

> <BIOSOLVEIT.HYDE_LIGAND_LIPOPHILIC_EFFICIENCY range: ++, +, 0, -, -->
--

> <BIOSOLVEIT.INTER_CLASH range: red, yellow, green>
green

> <BIOSOLVEIT.INTRA_CLASH range: red, yellow, green>
yellow

> <BIOSOLVEIT.LOGP>
4.9116

> <BIOSOLVEIT.MOLECULAR WEIGHT>
409.314

> <BIOSOLVEIT.MOLECULE_CHECKSUM>
LTE3LjI3NDU7MC42MTY5NDY=

> <BIOSOLVEIT.TORSION_QUALITY range: red, yellow, green, not rotatable>
green

> <BIOSOLVEIT.TPSA>
41.99

> <BIOSOLVEIT.SEESAR_FAVORITE>
favorite

> <smc_score>
0.688

> <QED_score>
0.622

> <distance>
0.641

> <SimilarityPheSA_1>
0.708

> <Smiles>
C#Cc1cccc2cncc(CCNC(=O)C3CCc4cc(Cl)c(Cl)cc43)c12

> <Similarity_SkelSpheres>
0.725

> <Cluster No>
1.0

> <QueryID>
ADA-UCB-6c2cb422-1

> <SimilarityPheSA>
0.7084

> <Postera series>
3-aminopyridine-like

> <PDB_code>
Mpro-x10959

> <Approach>
DGM_focussed_RL

> <ID>
20210618_0

> <SimilarityPheSA_2>
0.723

> <OPTIBRIUM.logD>
4.83063

> <OPTIBRIUM.BBB category>
+

> <OPTIBRIUM.logP>
4.83063

> <OPTIBRIUM.P-gp category>
no

> <OPTIBRIUM.logS>
-0.41578

> <OPTIBRIUM.HIA category>
+

> <OPTIBRIUM.PPB90 category>
high

> <OPTIBRIUM.2D6 affinity category>
high

> <OPTIBRIUM.hERG pIC50>
5.10131

> <OPTIBRIUM.2C9 pKi>
5.78721

> <OPTIBRIUM.BBB log([brain]:[blood])>
-0.22871

> <OPTIBRIUM.logS @ pH7.4>
-0.41578

$$$$
Compound 1_1_10
haSeeSAR  07122111353D 1   1.00000     0.00000     0
SeeSAR 11.0.2 hazemaj
 46 49  0  0  0  0            999 V2000
    6.4539    7.5688   20.8617 Cl  0  0  0  0  0  0  0  0  0  0  0  0
    6.3202    6.1600   21.9404 C   0  0  0  0  0  0  0  0  0  0  0  0
    5.1283    5.9150   22.6092 C   0  0  0  0  0  0  0  0  0  0  0  0
    7.4133    5.3177   22.1067 C   0  0  0  0  0  0  0  0  0  0  0  0
    3.7431    7.0137   22.4016 Cl  0  0  0  0  0  0  0  0  0  0  0  0
    5.0023    4.8077   23.4419 C   0  0  0  0  0  0  0  0  0  0  0  0
    7.2849    4.2203   22.9500 C   0  0  0  0  0  0  0  0  0  0  0  0
    6.0903    3.9596   23.5908 C   0  0  0  0  0  0  0  0  0  0  0  0
    8.3046    3.1553   23.3270 C   0  0  2  0  0  0  0  0  0  0  0  0
    6.1621    2.6736   24.3908 C   0  0  0  0  0  0  0  0  0  0  0  0
    8.5993    2.2382   22.1499 C   0  0  0  0  0  0  0  0  0  0  0  0
    7.6361    2.3090   24.3935 C   0  0  0  0  0  0  0  0  0  0  0  0
    8.3836    2.6231   21.0007 O   0  0  0  0  0  0  0  0  0  0  0  0
    9.0876    1.0268   22.3612 N   0  0  0  0  0  0  0  0  0  0  0  0
    9.3725    0.1406   21.2236 C   0  0  0  0  0  0  0  0  0  0  0  0
    8.1575   -0.7280   20.9412 C   0  0  0  0  0  0  0  0  0  0  0  0
    7.2372   -0.0108   19.9622 C   0  0  0  0  0  0  0  0  0  0  0  0
    6.0003    0.5770   20.2855 C   0  0  0  0  0  0  0  0  0  0  0  0
    7.7513    0.0108   18.6705 C   0  0  0  0  0  0  0  0  0  0  0  0
    5.3986    0.6055   21.5579 C   0  0  0  0  0  0  0  0  0  0  0  0
    5.3111    1.1851   19.2398 C   0  0  0  0  0  0  0  0  0  0  0  0
    7.0387    0.6133   17.7079 N   0  0  0  0  0  0  0  0  0  0  0  0
    5.9974   -0.0017   22.8198 C   0  0  0  0  0  0  0  0  0  0  0  0
    4.1678    1.2091   21.7873 C   0  0  0  0  0  0  0  0  0  0  0  0
    5.8529    1.1890   17.9586 C   0  0  0  0  0  0  0  0  0  0  0  0
    4.0783    1.7954   19.4444 C   0  0  0  0  0  0  0  0  0  0  0  0
    6.4654   -0.4763   23.8058 C   0  0  0  0  0  0  0  0  0  0  0  0
    3.5134    1.8046   20.7149 C   0  0  0  0  0  0  0  0  0  0  0  0
    8.2738    5.4975   21.6299 H   0  0  0  0  0  0  0  0  0  0  0  0
    4.1448    4.6265   23.9234 H   0  0  0  0  0  0  0  0  0  0  0  0
    9.1444    3.5717   23.6751 H   0  0  0  0  0  0  0  0  0  0  0  0
    5.6210    1.9549   23.9541 H   0  0  0  0  0  0  0  0  0  0  0  0
    5.8322    2.8187   25.3236 H   0  0  0  0  0  0  0  0  0  0  0  0
    8.0367    2.5051   25.2885 H   0  0  0  0  0  0  0  0  0  0  0  0
    7.7500    1.3380   24.1829 H   0  0  0  0  0  0  0  0  0  0  0  0
    9.2628    0.7143   23.2948 H   0  0  0  0  0  0  0  0  0  0  0  0
   10.1551   -0.4421   21.4428 H   0  0  0  0  0  0  0  0  0  0  0  0
    9.5831    0.6917   20.4162 H   0  0  0  0  0  0  0  0  0  0  0  0
    7.6662   -0.9013   21.7947 H   0  0  0  0  0  0  0  0  0  0  0  0
    8.4537   -1.5969   20.5448 H   0  0  0  0  0  0  0  0  0  0  0  0
    8.6329   -0.4137   18.4641 H   0  0  0  0  0  0  0  0  0  0  0  0
    3.7629    1.2149   22.7016 H   0  0  0  0  0  0  0  0  0  0  0  0
    5.3510    1.6275   17.2130 H   0  0  0  0  0  0  0  0  0  0  0  0
    3.5993    2.2266   18.6797 H   0  0  0  0  0  0  0  0  0  0  0  0
    6.8585   -0.8750   24.6343 H   0  0  0  0  0  0  0  0  0  0  0  0
    2.6268    2.2441   20.8589 H   0  0  0  0  0  0  0  0  0  0  0  0
  1  2  1  0  0  0  0
  2  3  2  0  0  0  0
  2  4  1  0  0  0  0
  3  5  1  0  0  0  0
  3  6  1  0  0  0  0
  4  7  2  0  0  0  0
  6  8  2  0  0  0  0
  7  9  1  0  0  0  0
  8 10  1  0  0  0  0
  9 11  1  0  0  0  0
  9 12  1  0  0  0  0
 11 13  2  0  0  0  0
 11 14  1  0  0  0  0
 14 15  1  0  0  0  0
 15 16  1  0  0  0  0
 16 17  1  0  0  0  0
 17 18  1  0  0  0  0
 17 19  2  0  0  0  0
 18 20  2  0  0  0  0
 18 21  1  0  0  0  0
 19 22  1  0  0  0  0
 20 23  1  0  0  0  0
 20 24  1  0  0  0  0
 21 25  1  0  0  0  0
 21 26  2  0  0  0  0
 23 27  3  0  0  0  0
 24 28  2  0  0  0  0
  7  8  1  0  0  0  0
 10 12  1  0  0  0  0
 22 25  2  0  0  0  0
 26 28  1  0  0  0  0
  4 29  1  0  0  0  0
  6 30  1  0  0  0  0
  9 31  1  0  0  0  0
 10 32  1  0  0  0  0
 10 33  1  0  0  0  0
 12 34  1  0  0  0  0
 12 35  1  0  0  0  0
 14 36  1  0  0  0  0
 15 37  1  0  0  0  0
 15 38  1  0  0  0  0
 16 39  1  0  0  0  0
 16 40  1  0  0  0  0
 19 41  1  0  0  0  0
 24 42  1  0  0  0  0
 25 43  1  0  0  0  0
 26 44  1  0  0  0  0
 27 45  1  0  0  0  0
 28 46  1  0  0  0  0
M  END
> <BIOSOLVEIT.HYDE_ESTIMATED_AFFINITY_LOWER_BOUNDARY [nM]>
94453.968466

> <BIOSOLVEIT.HYDE_ESTIMATED_AFFINITY_UPPER_BOUNDARY [nM]>
9384560.223169

> <BIOSOLVEIT.HYDE_LIGAND_EFFICIENCY range: ++, +, 0, -, -->
--

> <BIOSOLVEIT.HYDE_LIGAND_LIPOPHILIC_EFFICIENCY range: ++, +, 0, -, -->
--

> <BIOSOLVEIT.INTER_CLASH range: red, yellow, green>
green

> <BIOSOLVEIT.INTRA_CLASH range: red, yellow, green>
yellow

> <BIOSOLVEIT.LOGP>
4.9116

> <BIOSOLVEIT.MOLECULAR WEIGHT>
409.314

> <BIOSOLVEIT.MOLECULE_CHECKSUM>
LTE3LjI3MzU7MC42MTY5MQ==

> <BIOSOLVEIT.TORSION_QUALITY range: red, yellow, green, not rotatable>
green

> <BIOSOLVEIT.TPSA>
41.99

> <BIOSOLVEIT.SEESAR_FAVORITE>
favorite

> <smc_score>
0.688

> <QED_score>
0.622

> <distance>
0.641

> <SimilarityPheSA_1>
0.708

> <Smiles>
C#Cc1cccc2cncc(CCNC(=O)C3CCc4cc(Cl)c(Cl)cc43)c12

> <Similarity_SkelSpheres>
0.725

> <Cluster No>
1.0

> <QueryID>
ADA-UCB-6c2cb422-1

> <SimilarityPheSA>
0.7084

> <Postera series>
3-aminopyridine-like

> <PDB_code>
Mpro-x10959

> <Approach>
DGM_focussed_RL

> <ID>
20210618_0

> <SimilarityPheSA_2>
0.723

> <OPTIBRIUM.logD>
4.83063

> <OPTIBRIUM.BBB category>
+

> <OPTIBRIUM.logP>
4.83063

> <OPTIBRIUM.P-gp category>
no

> <OPTIBRIUM.logS>
-0.41578

> <OPTIBRIUM.HIA category>
+

> <OPTIBRIUM.PPB90 category>
high

> <OPTIBRIUM.2D6 affinity category>
high

> <OPTIBRIUM.hERG pIC50>
5.10131

> <OPTIBRIUM.2C9 pKi>
5.78721

> <OPTIBRIUM.BBB log([brain]:[blood])>
-0.22871

> <OPTIBRIUM.logS @ pH7.4>
-0.41578

$$$$
Compound 723_1_03
haSeeSAR  07122111353D 1   1.00000     0.00000     0
SeeSAR 11.0.2 hazemaj
 36 39  0  0  0  0            999 V2000
    6.5219    1.3527   23.7513 Cl  0  0  0  0  0  0  0  0  0  0  0  0
    7.3708   -0.0720   24.3960 C   0  0  0  0  0  0  0  0  0  0  0  0
    8.3280   -0.7632   23.6580 C   0  0  0  0  0  0  0  0  0  0  0  0
    7.0376   -0.4579   25.6887 C   0  0  0  0  0  0  0  0  0  0  0  0
    8.8442   -0.6067   22.3715 N   0  0  0  0  0  0  0  0  0  0  0  0
    8.9193   -1.8611   24.2528 C   0  0  0  0  0  0  0  0  0  0  0  0
    7.6632   -1.5560   26.2686 C   0  0  0  0  0  0  0  0  0  0  0  0
    8.2669    0.0701   21.2827 C   0  0  0  0  0  0  0  0  0  0  0  0
   10.1241   -1.3108   22.3009 C   0  0  0  0  0  0  0  0  0  0  0  0
    8.6186   -2.2678   25.5501 C   0  0  0  0  0  0  0  0  0  0  0  0
    9.8671   -2.4636   23.2481 C   0  0  0  0  0  0  0  0  0  0  0  0
    8.8272    1.0139   20.7975 O   0  0  0  0  0  0  0  0  0  0  0  0
    7.0647   -0.3478   20.7756 N   0  0  0  0  0  0  0  0  0  0  0  0
    9.4321   -3.6749   26.2743 Cl  0  0  0  0  0  0  0  0  0  0  0  0
    6.4894    0.3267   19.6904 C   0  0  0  0  0  0  0  0  0  0  0  0
    5.2947    1.0256   19.8785 C   0  0  0  0  0  0  0  0  0  0  0  0
    7.0759    0.2934   18.4291 C   0  0  0  0  0  0  0  0  0  0  0  0
    4.7512    1.6975   18.8145 C   0  0  0  0  0  0  0  0  0  0  0  0
    4.3868    1.2655   21.0751 C   0  0  0  0  0  0  0  0  0  0  0  0
    6.4967    0.9433   17.4069 N   0  0  0  0  0  0  0  0  0  0  0  0
    3.5530    2.3899   19.2350 C   0  0  0  0  0  0  0  0  0  0  0  0
    5.3627    1.6410   17.5660 C   0  0  0  0  0  0  0  0  0  0  0  0
    3.3266    2.1517   20.5883 N   0  0  0  0  0  0  0  0  0  0  0  0
    2.8262    3.0738   18.5300 O   0  0  0  0  0  0  0  0  0  0  0  0
    6.3482    0.0537   26.2015 H   0  0  0  0  0  0  0  0  0  0  0  0
    7.4271   -1.8335   27.1999 H   0  0  0  0  0  0  0  0  0  0  0  0
   10.8784   -0.7357   22.6176 H   0  0  0  0  0  0  0  0  0  0  0  0
   10.3166   -1.6324   21.3738 H   0  0  0  0  0  0  0  0  0  0  0  0
    9.4452   -3.2348   22.7715 H   0  0  0  0  0  0  0  0  0  0  0  0
   10.7135   -2.7655   23.6868 H   0  0  0  0  0  0  0  0  0  0  0  0
    6.5979   -1.1343   21.1799 H   0  0  0  0  0  0  0  0  0  0  0  0
    7.9260   -0.2129   18.2844 H   0  0  0  0  0  0  0  0  0  0  0  0
    4.8947    1.7026   21.8174 H   0  0  0  0  0  0  0  0  0  0  0  0
    3.9998    0.4022   21.3991 H   0  0  0  0  0  0  0  0  0  0  0  0
    4.9568    2.1204   16.7879 H   0  0  0  0  0  0  0  0  0  0  0  0
    2.5729    2.5206   21.1321 H   0  0  0  0  0  0  0  0  0  0  0  0
  1  2  1  0  0  0  0
  2  3  2  0  0  0  0
  2  4  1  0  0  0  0
  3  5  1  0  0  0  0
  3  6  1  0  0  0  0
  4  7  2  0  0  0  0
  5  8  1  0  0  0  0
  5  9  1  0  0  0  0
  6 10  2  0  0  0  0
  6 11  1  0  0  0  0
  8 12  2  0  0  0  0
  8 13  1  0  0  0  0
 10 14  1  0  0  0  0
 13 15  1  0  0  0  0
 15 16  2  0  0  0  0
 15 17  1  0  0  0  0
 16 18  1  0  0  0  0
 16 19  1  0  0  0  0
 17 20  2  0  0  0  0
 18 21  1  0  0  0  0
 18 22  2  0  0  0  0
 19 23  1  0  0  0  0
 21 24  2  0  0  0  0
  7 10  1  0  0  0  0
  9 11  1  0  0  0  0
 20 22  1  0  0  0  0
 21 23  1  0  0  0  0
  4 25  1  0  0  0  0
  7 26  1  0  0  0  0
  9 27  1  0  0  0  0
  9 28  1  0  0  0  0
 11 29  1  0  0  0  0
 11 30  1  0  0  0  0
 13 31  1  0  0  0  0
 17 32  1  0  0  0  0
 19 33  1  0  0  0  0
 19 34  1  0  0  0  0
 22 35  1  0  0  0  0
 23 36  1  0  0  0  0
M  END
> <BIOSOLVEIT.HYDE_ESTIMATED_AFFINITY_LOWER_BOUNDARY [nM]>
94540.231298

> <BIOSOLVEIT.HYDE_ESTIMATED_AFFINITY_UPPER_BOUNDARY [nM]>
9393130.945563

> <BIOSOLVEIT.HYDE_LIGAND_EFFICIENCY range: ++, +, 0, -, -->
--

> <BIOSOLVEIT.HYDE_LIGAND_LIPOPHILIC_EFFICIENCY range: ++, +, 0, -, -->
--

> <BIOSOLVEIT.INTER_CLASH range: red, yellow, green>
green

> <BIOSOLVEIT.INTRA_CLASH range: red, yellow, green>
green

> <BIOSOLVEIT.LOGP>
3.2264

> <BIOSOLVEIT.MOLECULAR WEIGHT>
363.203

> <BIOSOLVEIT.MOLECULE_CHECKSUM>
LTE3LjI3MTI7MC43MTk2MzQ=

> <BIOSOLVEIT.TORSION_QUALITY range: red, yellow, green, not rotatable>
yellow

> <BIOSOLVEIT.TPSA>
74.33

> <BIOSOLVEIT.SEESAR_FAVORITE>
favorite

> <smc_score>
0.75

> <QED_score>
0.817

> <distance>
0.685

> <SimilarityPheSA_1>
0.671

> <Smiles>
O=C1NCc2c(NC(=O)N3CCc4c(Cl)ccc(Cl)c43)cncc21

> <Similarity_SkelSpheres>
0.633

> <Cluster No>
412.0

> <QueryID>
ALP-POS-ce760d3f-2

> <SimilarityPheSA>
0.6708

> <Postera series>
3-aminopyridine-like

> <PDB_code>
Mpro-x12659

> <Approach>
DGM_focussed_RL

> <ID>
20210618_722

> <SimilarityPheSA_2>
0.761

> <OPTIBRIUM.logD>
2.25628

> <OPTIBRIUM.BBB category>
-

> <OPTIBRIUM.logP>
2.25628

> <OPTIBRIUM.P-gp category>
no

> <OPTIBRIUM.logS>
1.27111

> <OPTIBRIUM.HIA category>
+

> <OPTIBRIUM.PPB90 category>
high

> <OPTIBRIUM.2D6 affinity category>
medium

> <OPTIBRIUM.hERG pIC50>
4.67445

> <OPTIBRIUM.2C9 pKi>
5.60181

> <OPTIBRIUM.BBB log([brain]:[blood])>
0.329193

> <OPTIBRIUM.logS @ pH7.4>
1.27111

$$$$
Compound 2_1_1
haSeeSAR  07122111353D 1   1.00000     0.00000     0
SeeSAR 11.0.2 hazemaj
 42 45  0  0  0  0            999 V2000
    6.1721    0.0992   28.4067 Cl  0  0  0  0  0  0  0  0  0  0  0  0
    6.5582    0.8407   26.8330 C   0  0  0  0  0  0  0  0  0  0  0  0
    6.3477    0.1060   25.6704 C   0  0  0  0  0  0  0  0  0  0  0  0
    7.0662    2.1339   26.7238 C   0  0  0  0  0  0  0  0  0  0  0  0
    5.7024   -1.5510   25.7470 Cl  0  0  0  0  0  0  0  0  0  0  0  0
    6.6406    0.6559   24.4262 C   0  0  0  0  0  0  0  0  0  0  0  0
    7.3692    2.7129   25.4927 C   0  0  0  0  0  0  0  0  0  0  0  0
    7.1462    1.9498   24.3694 C   0  0  0  0  0  0  0  0  0  0  0  0
    7.8511    3.9166   25.1335 O   0  0  0  0  0  0  0  0  0  0  0  0
    7.5586    2.7735   23.1674 C   0  0  1  0  0  0  0  0  0  0  0  0
    8.4665    3.7634   23.8704 C   0  0  0  0  0  0  0  0  0  0  0  0
    8.2946    1.9508   22.1200 C   0  0  0  0  0  0  0  0  0  0  0  0
    8.2661    2.2922   20.9376 O   0  0  0  0  0  0  0  0  0  0  0  0
    8.9651    0.8687   22.4802 N   0  0  0  0  0  0  0  0  0  0  0  0
    9.6761    0.0739   21.4683 C   0  0  0  0  0  0  0  0  0  0  0  0
    8.7627   -1.0274   20.9553 C   0  0  0  0  0  0  0  0  0  0  0  0
    7.4100   -0.6087   21.0627 O   0  0  0  0  0  0  0  0  0  0  0  0
    6.7983   -0.0239   20.0097 C   0  0  0  0  0  0  0  0  0  0  0  0
    5.6055    0.6865   20.1337 C   0  0  0  0  0  0  0  0  0  0  0  0
    7.3868   -0.1384   18.7549 C   0  0  0  0  0  0  0  0  0  0  0  0
    5.0338    1.2632   19.0053 C   0  0  0  0  0  0  0  0  0  0  0  0
    4.9533    0.8453   21.3523 C   0  0  0  0  0  0  0  0  0  0  0  0
    6.8164    0.4256   17.6800 N   0  0  0  0  0  0  0  0  0  0  0  0
    5.6692    1.1136   17.7770 C   0  0  0  0  0  0  0  0  0  0  0  0
    3.8436    1.9716   19.1351 C   0  0  0  0  0  0  0  0  0  0  0  0
    3.7645    1.5614   21.4418 C   0  0  0  0  0  0  0  0  0  0  0  0
    3.2467    2.1028   20.3295 N   0  0  0  0  0  0  0  0  0  0  0  0
    7.2187    2.6647   27.5574 H   0  0  0  0  0  0  0  0  0  0  0  0
    6.4902    0.1304   23.5888 H   0  0  0  0  0  0  0  0  0  0  0  0
    6.7691    3.2374   22.7656 H   0  0  0  0  0  0  0  0  0  0  0  0
    9.3928    3.3982   23.9637 H   0  0  0  0  0  0  0  0  0  0  0  0
    8.4991    4.6334   23.3785 H   0  0  0  0  0  0  0  0  0  0  0  0
    8.9883    0.5914   23.4406 H   0  0  0  0  0  0  0  0  0  0  0  0
   10.4923   -0.3337   21.8777 H   0  0  0  0  0  0  0  0  0  0  0  0
    9.9445    0.6655   20.7080 H   0  0  0  0  0  0  0  0  0  0  0  0
    8.8997   -1.8548   21.4999 H   0  0  0  0  0  0  0  0  0  0  0  0
    8.9771   -1.2193   19.9976 H   0  0  0  0  0  0  0  0  0  0  0  0
    8.2426   -0.6456   18.6531 H   0  0  0  0  0  0  0  0  0  0  0  0
    5.3456    0.4381   22.1770 H   0  0  0  0  0  0  0  0  0  0  0  0
    5.2667    1.5231   16.9583 H   0  0  0  0  0  0  0  0  0  0  0  0
    3.4272    2.3886   18.3271 H   0  0  0  0  0  0  0  0  0  0  0  0
    3.3029    1.6708   22.3220 H   0  0  0  0  0  0  0  0  0  0  0  0
  1  2  1  0  0  0  0
  2  3  2  0  0  0  0
  2  4  1  0  0  0  0
  3  5  1  0  0  0  0
  3  6  1  0  0  0  0
  4  7  2  0  0  0  0
  6  8  2  0  0  0  0
  7  9  1  0  0  0  0
  8 10  1  0  0  0  0
  9 11  1  0  0  0  0
 10 12  1  0  0  0  0
 12 13  2  0  0  0  0
 12 14  1  0  0  0  0
 14 15  1  0  0  0  0
 15 16  1  0  0  0  0
 16 17  1  0  0  0  0
 17 18  1  0  0  0  0
 18 19  1  0  0  0  0
 18 20  2  0  0  0  0
 19 21  1  0  0  0  0
 19 22  2  0  0  0  0
 20 23  1  0  0  0  0
 21 24  1  0  0  0  0
 21 25  2  0  0  0  0
 22 26  1  0  0  0  0
 25 27  1  0  0  0  0
  7  8  1  0  0  0  0
 10 11  1  0  0  0  0
 23 24  2  0  0  0  0
 26 27  2  0  0  0  0
  4 28  1  0  0  0  0
  6 29  1  0  0  0  0
 10 30  1  0  0  0  0
 11 31  1  0  0  0  0
 11 32  1  0  0  0  0
 14 33  1  0  0  0  0
 15 34  1  0  0  0  0
 15 35  1  0  0  0  0
 16 36  1  0  0  0  0
 16 37  1  0  0  0  0
 20 38  1  0  0  0  0
 22 39  1  0  0  0  0
 24 40  1  0  0  0  0
 25 41  1  0  0  0  0
 26 42  1  0  0  0  0
M  END
> <BIOSOLVEIT.HYDE_ESTIMATED_AFFINITY_LOWER_BOUNDARY [nM]>
96900.161777

> <BIOSOLVEIT.HYDE_ESTIMATED_AFFINITY_UPPER_BOUNDARY [nM]>
9627603.991606

> <BIOSOLVEIT.HYDE_LIGAND_EFFICIENCY range: ++, +, 0, -, -->
--

> <BIOSOLVEIT.HYDE_LIGAND_LIPOPHILIC_EFFICIENCY range: ++, +, 0, -, -->
--

> <BIOSOLVEIT.INTER_CLASH range: red, yellow, green>
green

> <BIOSOLVEIT.INTRA_CLASH range: red, yellow, green>
green

> <BIOSOLVEIT.LOGP>
3.6078

> <BIOSOLVEIT.MOLECULAR WEIGHT>
404.252

> <BIOSOLVEIT.MOLECULE_CHECKSUM>
LTE3LjIxMDE7MC42Mzc0MTE=

> <BIOSOLVEIT.TORSION_QUALITY range: red, yellow, green, not rotatable>
yellow

> <BIOSOLVEIT.TPSA>
73.34

> <BIOSOLVEIT.SEESAR_FAVORITE>
favorite

> <smc_score>
0.938

> <QED_score>
0.658

> <distance>
0.543

> <SimilarityPheSA_1>
0.649

> <Smiles>
O=C(NCCOc1cncc2cnccc12)C1COc2cc(Cl)c(Cl)cc21

> <Similarity_SkelSpheres>
0.757

> <Cluster No>
1.0

> <QueryID>
MAT-POS-3b92565d-1

> <SimilarityPheSA>
0.6493

> <Postera series>
3-aminopyridine-like

> <PDB_code>
Mpro-x11609

> <Approach>
DGM_focussed_RL

> <ID>
20210618_1

> <SimilarityPheSA_2>
0.703

> <OPTIBRIUM.logD>
2.644

> <OPTIBRIUM.BBB category>
-

> <OPTIBRIUM.logP>
2.644

> <OPTIBRIUM.P-gp category>
yes

> <OPTIBRIUM.logS>
0.365922

> <OPTIBRIUM.HIA category>
+

> <OPTIBRIUM.PPB90 category>
high

> <OPTIBRIUM.2D6 affinity category>
high

> <OPTIBRIUM.hERG pIC50>
4.5382

> <OPTIBRIUM.2C9 pKi>
5.56137

> <OPTIBRIUM.BBB log([brain]:[blood])>
-0.582924

> <OPTIBRIUM.logS @ pH7.4>
0.365922

$$$$
Compound 540_1_10
haSeeSAR  07122111353D 1   1.00000     0.00000     0
SeeSAR 11.0.2 hazemaj
 35 38  0  0  0  0            999 V2000
   11.5618    1.9520   22.4433 Cl  0  0  0  0  0  0  0  0  0  0  0  0
   11.0575    0.2680   22.7219 C   0  0  0  0  0  0  0  0  0  0  0  0
   12.0106   -0.7444   22.7024 C   0  0  0  0  0  0  0  0  0  0  0  0
    9.7297   -0.0745   22.9596 C   0  0  0  0  0  0  0  0  0  0  0  0
   13.7264   -0.3758   22.4032 Cl  0  0  0  0  0  0  0  0  0  0  0  0
   11.5933   -2.0531   22.9231 C   0  0  0  0  0  0  0  0  0  0  0  0
    9.2877   -1.3510   23.1822 C   0  0  0  0  0  0  0  0  0  0  0  0
    8.5310    0.8469   23.0238 C   0  0  1  0  0  0  0  0  0  0  0  0
   10.2564   -2.3497   23.1602 C   0  0  0  0  0  0  0  0  0  0  0  0
    7.9513   -1.3525   23.3862 O   0  0  0  0  0  0  0  0  0  0  0  0
    7.9538    1.1313   21.6469 C   0  0  0  0  0  0  0  0  0  0  0  0
    7.6181   -0.0517   23.8322 C   0  0  0  0  0  0  0  0  0  0  0  0
    8.4978    1.9531   20.9092 O   0  0  0  0  0  0  0  0  0  0  0  0
    6.8667    0.4957   21.2411 N   0  0  0  0  0  0  0  0  0  0  0  0
    6.3345    0.7580   19.9715 C   0  0  0  0  0  0  0  0  0  0  0  0
    5.1830    1.4921   19.7929 N   0  0  0  0  0  0  0  0  0  0  0  0
    7.0205    0.2457   18.9015 C   0  0  0  0  0  0  0  0  0  0  0  0
    4.7224    1.7124   18.5365 C   0  0  0  0  0  0  0  0  0  0  0  0
    4.3034    2.1046   20.6338 C   0  0  0  0  0  0  0  0  0  0  0  0
    6.5416    0.4751   17.6369 N   0  0  0  0  0  0  0  0  0  0  0  0
    3.6173    2.4197   18.6175 N   0  0  0  0  0  0  0  0  0  0  0  0
    5.4394    1.1760   17.4331 C   0  0  0  0  0  0  0  0  0  0  0  0
    3.3743    2.6522   19.8893 N   0  0  0  0  0  0  0  0  0  0  0  0
    4.3486    2.1641   22.1544 C   0  0  0  0  0  0  0  0  0  0  0  0
   12.2664   -2.7925   22.9110 H   0  0  0  0  0  0  0  0  0  0  0  0
    8.7432    1.6918   23.5147 H   0  0  0  0  0  0  0  0  0  0  0  0
    9.9853   -3.2992   23.3181 H   0  0  0  0  0  0  0  0  0  0  0  0
    6.6576    0.1546   23.6457 H   0  0  0  0  0  0  0  0  0  0  0  0
    7.7961    0.0465   24.8113 H   0  0  0  0  0  0  0  0  0  0  0  0
    6.4248   -0.1718   21.8403 H   0  0  0  0  0  0  0  0  0  0  0  0
    7.8558   -0.2863   19.0402 H   0  0  0  0  0  0  0  0  0  0  0  0
    5.1097    1.3289   16.5014 H   0  0  0  0  0  0  0  0  0  0  0  0
    3.5648    2.6859   22.4910 H   0  0  0  0  0  0  0  0  0  0  0  0
    4.3154    1.2361   22.5254 H   0  0  0  0  0  0  0  0  0  0  0  0
    5.1953    2.6094   22.4456 H   0  0  0  0  0  0  0  0  0  0  0  0
  1  2  1  0  0  0  0
  2  3  2  0  0  0  0
  2  4  1  0  0  0  0
  3  5  1  0  0  0  0
  3  6  1  0  0  0  0
  4  7  2  0  0  0  0
  4  8  1  0  0  0  0
  6  9  2  0  0  0  0
  7 10  1  0  0  0  0
  8 11  1  0  0  0  0
  8 12  1  0  0  0  0
 11 13  2  0  0  0  0
 11 14  1  0  0  0  0
 14 15  1  0  0  0  0
 15 16  1  0  0  0  0
 15 17  2  0  0  0  0
 16 18  1  0  0  0  0
 16 19  1  0  0  0  0
 17 20  1  0  0  0  0
 18 21  2  0  0  0  0
 18 22  1  0  0  0  0
 19 23  2  0  0  0  0
 19 24  1  0  0  0  0
  7  9  1  0  0  0  0
 10 12  1  0  0  0  0
 20 22  2  0  0  0  0
 21 23  1  0  0  0  0
  6 25  1  0  0  0  0
  8 26  1  0  0  0  0
  9 27  1  0  0  0  0
 12 28  1  0  0  0  0
 12 29  1  0  0  0  0
 14 30  1  0  0  0  0
 17 31  1  0  0  0  0
 22 32  1  0  0  0  0
 24 33  1  0  0  0  0
 24 34  1  0  0  0  0
 24 35  1  0  0  0  0
M  END
> <BIOSOLVEIT.HYDE_ESTIMATED_AFFINITY_LOWER_BOUNDARY [nM]>
101301.004387

> <BIOSOLVEIT.HYDE_ESTIMATED_AFFINITY_UPPER_BOUNDARY [nM]>
10064853.724772

> <BIOSOLVEIT.HYDE_LIGAND_EFFICIENCY range: ++, +, 0, -, -->
--

> <BIOSOLVEIT.HYDE_LIGAND_LIPOPHILIC_EFFICIENCY range: ++, +, 0, -, -->
--

> <BIOSOLVEIT.INTER_CLASH range: red, yellow, green>
green

> <BIOSOLVEIT.INTRA_CLASH range: red, yellow, green>
green

> <BIOSOLVEIT.LOGP>
2.85422

> <BIOSOLVEIT.MOLECULAR WEIGHT>
364.191

> <BIOSOLVEIT.MOLECULE_CHECKSUM>
LTE3LjE7MC43MTI1

> <BIOSOLVEIT.TORSION_QUALITY range: red, yellow, green, not rotatable>
green

> <BIOSOLVEIT.TPSA>
81.93

> <BIOSOLVEIT.SEESAR_FAVORITE>
favorite

> <smc_score>
0.688

> <QED_score>
0.756

> <distance>
0.608

> <SimilarityPheSA_1>
0.675

> <Smiles>
Cc1nnc2cncc(NC(=O)C3COc4ccc(Cl)c(Cl)c43)n12

> <Similarity_SkelSpheres>
0.572

> <Cluster No>
288.0

> <QueryID>
EDJ-MED-e4b030d8-13

> <SimilarityPheSA>
0.6751

> <Postera series>
3-aminopyridine-like

> <PDB_code>
Mpro-x12207

> <Approach>
DGM_focussed_RL

> <ID>
20210618_539

> <SimilarityPheSA_2>
0.919

> <OPTIBRIUM.logD>
2.6583

> <OPTIBRIUM.BBB category>
-

> <OPTIBRIUM.logP>
2.6583

> <OPTIBRIUM.P-gp category>
no

> <OPTIBRIUM.logS>
1.66321

> <OPTIBRIUM.HIA category>
+

> <OPTIBRIUM.PPB90 category>
high

> <OPTIBRIUM.2D6 affinity category>
high

> <OPTIBRIUM.hERG pIC50>
4.70586

> <OPTIBRIUM.2C9 pKi>
5.48148

> <OPTIBRIUM.BBB log([brain]:[blood])>
-0.434145

> <OPTIBRIUM.logS @ pH7.4>
1.66321

$$$$
Compound 540_1_09
haSeeSAR  07122111353D 1   1.00000     0.00000     0
SeeSAR 11.0.2 hazemaj
 35 38  0  0  0  0            999 V2000
   11.5419    1.9588   22.4422 Cl  0  0  0  0  0  0  0  0  0  0  0  0
   11.0387    0.2741   22.7198 C   0  0  0  0  0  0  0  0  0  0  0  0
   11.9928   -0.7374   22.7005 C   0  0  0  0  0  0  0  0  0  0  0  0
    9.7112   -0.0695   22.9564 C   0  0  0  0  0  0  0  0  0  0  0  0
   13.7085   -0.3671   22.4026 Cl  0  0  0  0  0  0  0  0  0  0  0  0
   11.5765   -2.0465   22.9203 C   0  0  0  0  0  0  0  0  0  0  0  0
    9.2701   -1.3466   23.1783 C   0  0  0  0  0  0  0  0  0  0  0  0
    8.5117    0.8507   23.0203 C   0  0  1  0  0  0  0  0  0  0  0  0
   10.2397   -2.3444   23.1565 C   0  0  0  0  0  0  0  0  0  0  0  0
    7.9336   -1.3494   23.3814 O   0  0  0  0  0  0  0  0  0  0  0  0
    7.9351    1.1352   21.6431 C   0  0  0  0  0  0  0  0  0  0  0  0
    7.5989   -0.0490   23.8277 C   0  0  0  0  0  0  0  0  0  0  0  0
    8.4858    1.9487   20.9014 O   0  0  0  0  0  0  0  0  0  0  0  0
    6.8413    0.5085   21.2415 N   0  0  0  0  0  0  0  0  0  0  0  0
    6.3097    0.7708   19.9717 C   0  0  0  0  0  0  0  0  0  0  0  0
    5.1575    1.5075   19.8019 N   0  0  0  0  0  0  0  0  0  0  0  0
    6.9990    0.2478   18.9052 C   0  0  0  0  0  0  0  0  0  0  0  0
    4.7019    1.7160   18.5449 C   0  0  0  0  0  0  0  0  0  0  0  0
    4.2597    2.1157   20.6363 C   0  0  0  0  0  0  0  0  0  0  0  0
    6.5455    0.4538   17.6280 N   0  0  0  0  0  0  0  0  0  0  0  0
    3.6016    2.4437   18.6404 N   0  0  0  0  0  0  0  0  0  0  0  0
    5.4389    1.1655   17.4597 C   0  0  0  0  0  0  0  0  0  0  0  0
    3.3275    2.6793   19.9063 N   0  0  0  0  0  0  0  0  0  0  0  0
    4.3096    2.1645   22.1589 C   0  0  0  0  0  0  0  0  0  0  0  0
   12.2503   -2.7854   22.9083 H   0  0  0  0  0  0  0  0  0  0  0  0
    8.7228    1.6956   23.5116 H   0  0  0  0  0  0  0  0  0  0  0  0
    9.9694   -3.2942   23.3138 H   0  0  0  0  0  0  0  0  0  0  0  0
    6.6384    0.1565   23.6407 H   0  0  0  0  0  0  0  0  0  0  0  0
    7.7763    0.0490   24.8069 H   0  0  0  0  0  0  0  0  0  0  0  0
    6.3940   -0.1525   21.8440 H   0  0  0  0  0  0  0  0  0  0  0  0
    7.8318   -0.2835   19.0603 H   0  0  0  0  0  0  0  0  0  0  0  0
    5.1081    1.3220   16.5291 H   0  0  0  0  0  0  0  0  0  0  0  0
    3.5226    2.6772   22.5020 H   0  0  0  0  0  0  0  0  0  0  0  0
    4.2855    1.2335   22.5232 H   0  0  0  0  0  0  0  0  0  0  0  0
    5.1536    2.6147   22.4505 H   0  0  0  0  0  0  0  0  0  0  0  0
  1  2  1  0  0  0  0
  2  3  2  0  0  0  0
  2  4  1  0  0  0  0
  3  5  1  0  0  0  0
  3  6  1  0  0  0  0
  4  7  2  0  0  0  0
  4  8  1  0  0  0  0
  6  9  2  0  0  0  0
  7 10  1  0  0  0  0
  8 11  1  0  0  0  0
  8 12  1  0  0  0  0
 11 13  2  0  0  0  0
 11 14  1  0  0  0  0
 14 15  1  0  0  0  0
 15 16  1  0  0  0  0
 15 17  2  0  0  0  0
 16 18  1  0  0  0  0
 16 19  1  0  0  0  0
 17 20  1  0  0  0  0
 18 21  2  0  0  0  0
 18 22  1  0  0  0  0
 19 23  2  0  0  0  0
 19 24  1  0  0  0  0
  7  9  1  0  0  0  0
 10 12  1  0  0  0  0
 20 22  2  0  0  0  0
 21 23  1  0  0  0  0
  6 25  1  0  0  0  0
  8 26  1  0  0  0  0
  9 27  1  0  0  0  0
 12 28  1  0  0  0  0
 12 29  1  0  0  0  0
 14 30  1  0  0  0  0
 17 31  1  0  0  0  0
 22 32  1  0  0  0  0
 24 33  1  0  0  0  0
 24 34  1  0  0  0  0
 24 35  1  0  0  0  0
M  END
> <BIOSOLVEIT.HYDE_ESTIMATED_AFFINITY_LOWER_BOUNDARY [nM]>
101539.820678

> <BIOSOLVEIT.HYDE_ESTIMATED_AFFINITY_UPPER_BOUNDARY [nM]>
10088581.535320

> <BIOSOLVEIT.HYDE_LIGAND_EFFICIENCY range: ++, +, 0, -, -->
--

> <BIOSOLVEIT.HYDE_LIGAND_LIPOPHILIC_EFFICIENCY range: ++, +, 0, -, -->
--

> <BIOSOLVEIT.INTER_CLASH range: red, yellow, green>
green

> <BIOSOLVEIT.INTRA_CLASH range: red, yellow, green>
green

> <BIOSOLVEIT.LOGP>
2.85422

> <BIOSOLVEIT.MOLECULAR WEIGHT>
364.191

> <BIOSOLVEIT.MOLECULE_CHECKSUM>
LTE3LjA5NDI7MC43MTIyNTc=

> <BIOSOLVEIT.TORSION_QUALITY range: red, yellow, green, not rotatable>
green

> <BIOSOLVEIT.TPSA>
81.93

> <BIOSOLVEIT.SEESAR_FAVORITE>
favorite

> <smc_score>
0.688

> <QED_score>
0.756

> <distance>
0.608

> <SimilarityPheSA_1>
0.675

> <Smiles>
Cc1nnc2cncc(NC(=O)C3COc4ccc(Cl)c(Cl)c43)n12

> <Similarity_SkelSpheres>
0.572

> <Cluster No>
288.0

> <QueryID>
EDJ-MED-e4b030d8-13

> <SimilarityPheSA>
0.6751

> <Postera series>
3-aminopyridine-like

> <PDB_code>
Mpro-x12207

> <Approach>
DGM_focussed_RL

> <ID>
20210618_539

> <SimilarityPheSA_2>
0.919

> <OPTIBRIUM.logD>
2.6583

> <OPTIBRIUM.BBB category>
-

> <OPTIBRIUM.logP>
2.6583

> <OPTIBRIUM.P-gp category>
no

> <OPTIBRIUM.logS>
1.66321

> <OPTIBRIUM.HIA category>
+

> <OPTIBRIUM.PPB90 category>
high

> <OPTIBRIUM.2D6 affinity category>
high

> <OPTIBRIUM.hERG pIC50>
4.70586

> <OPTIBRIUM.2C9 pKi>
5.48148

> <OPTIBRIUM.BBB log([brain]:[blood])>
-0.434145

> <OPTIBRIUM.logS @ pH7.4>
1.66321

$$$$
Compound 360_1_03
haSeeSAR  07122111353D 1   1.00000     0.00000     0
SeeSAR 11.0.2 hazemaj
 39 41  0  0  0  0            999 V2000
   12.8798    1.9339   23.3220 Cl  0  0  0  0  0  0  0  0  0  0  0  0
   11.7350    0.6656   22.8240 C   0  0  0  0  0  0  0  0  0  0  0  0
   12.2167   -0.5486   22.3459 C   0  0  0  0  0  0  0  0  0  0  0  0
   10.3662    0.8932   22.9152 C   0  0  0  0  0  0  0  0  0  0  0  0
   13.9712   -0.8282   22.2347 Cl  0  0  0  0  0  0  0  0  0  0  0  0
   11.3392   -1.5530   21.9505 C   0  0  0  0  0  0  0  0  0  0  0  0
    9.4924   -0.1137   22.5194 C   0  0  0  0  0  0  0  0  0  0  0  0
    9.9689   -1.3294   22.0398 C   0  0  0  0  0  0  0  0  0  0  0  0
    7.9951    0.1308   22.6171 C   0  0  0  0  0  0  0  0  0  0  0  0
    7.4898    0.7101   21.3057 C   0  0  0  0  0  0  0  0  0  0  0  0
    8.1844    1.5089   20.6775 O   0  0  0  0  0  0  0  0  0  0  0  0
    6.3034    0.3556   20.8395 N   0  0  0  0  0  0  0  0  0  0  0  0
    6.0029    0.5315   19.4821 C   0  0  0  0  0  0  0  0  0  0  0  0
    4.9415    1.2103   18.9694 N   0  0  0  0  0  0  0  0  0  0  0  0
    6.7206    0.0549   18.4268 C   0  0  0  0  0  0  0  0  0  0  0  0
    5.0267    1.1310   17.6639 N   0  0  0  0  0  0  0  0  0  0  0  0
    3.8846    1.8921   19.7345 C   0  0  0  0  0  0  0  0  0  0  0  0
    6.0529    0.4632   17.3114 N   0  0  0  0  0  0  0  0  0  0  0  0
    4.4708    2.8177   20.7899 C   0  0  0  0  0  0  0  0  0  0  0  0
    3.0546    2.7483   18.7885 C   0  0  0  0  0  0  0  0  0  0  0  0
    3.3343    3.3566   21.6474 C   0  0  0  0  0  0  0  0  0  0  0  0
    2.2325    3.7589   19.5760 C   0  0  0  0  0  0  0  0  0  0  0  0
    2.0948    3.3844   20.9449 O   0  0  0  0  0  0  0  0  0  0  0  0
   10.0166    1.7647   23.2592 H   0  0  0  0  0  0  0  0  0  0  0  0
   11.6888   -2.4245   21.6065 H   0  0  0  0  0  0  0  0  0  0  0  0
    9.3264   -2.0425   21.7593 H   0  0  0  0  0  0  0  0  0  0  0  0
    7.8102    0.7750   23.3591 H   0  0  0  0  0  0  0  0  0  0  0  0
    7.5275   -0.7337   22.8017 H   0  0  0  0  0  0  0  0  0  0  0  0
    5.6212   -0.0378   21.4558 H   0  0  0  0  0  0  0  0  0  0  0  0
    7.5628   -0.4830   18.4633 H   0  0  0  0  0  0  0  0  0  0  0  0
    3.2972    1.2123   20.1738 H   0  0  0  0  0  0  0  0  0  0  0  0
    4.9469    3.5767   20.3457 H   0  0  0  0  0  0  0  0  0  0  0  0
    5.1143    2.3105   21.3632 H   0  0  0  0  0  0  0  0  0  0  0  0
    2.4396    2.1594   18.2641 H   0  0  0  0  0  0  0  0  0  0  0  0
    3.6643    3.2347   18.1627 H   0  0  0  0  0  0  0  0  0  0  0  0
    3.5618    4.2868   21.9356 H   0  0  0  0  0  0  0  0  0  0  0  0
    3.2345    2.7729   22.4532 H   0  0  0  0  0  0  0  0  0  0  0  0
    1.3227    3.8245   19.1662 H   0  0  0  0  0  0  0  0  0  0  0  0
    2.6844    4.6496   19.5287 H   0  0  0  0  0  0  0  0  0  0  0  0
  1  2  1  0  0  0  0
  2  3  2  0  0  0  0
  2  4  1  0  0  0  0
  3  5  1  0  0  0  0
  3  6  1  0  0  0  0
  4  7  2  0  0  0  0
  6  8  2  0  0  0  0
  7  9  1  0  0  0  0
  9 10  1  0  0  0  0
 10 11  2  0  0  0  0
 10 12  1  0  0  0  0
 12 13  1  0  0  0  0
 13 14  1  0  0  0  0
 13 15  2  0  0  0  0
 14 16  1  0  0  0  0
 14 17  1  0  0  0  0
 15 18  1  0  0  0  0
 17 19  1  0  0  0  0
 17 20  1  0  0  0  0
 19 21  1  0  0  0  0
 20 22  1  0  0  0  0
 21 23  1  0  0  0  0
  7  8  1  0  0  0  0
 16 18  2  0  0  0  0
 22 23  1  0  0  0  0
  4 24  1  0  0  0  0
  6 25  1  0  0  0  0
  8 26  1  0  0  0  0
  9 27  1  0  0  0  0
  9 28  1  0  0  0  0
 12 29  1  0  0  0  0
 15 30  1  0  0  0  0
 17 31  1  0  0  0  0
 19 32  1  0  0  0  0
 19 33  1  0  0  0  0
 20 34  1  0  0  0  0
 20 35  1  0  0  0  0
 21 36  1  0  0  0  0
 21 37  1  0  0  0  0
 22 38  1  0  0  0  0
 22 39  1  0  0  0  0
M  END
> <BIOSOLVEIT.HYDE_ESTIMATED_AFFINITY_LOWER_BOUNDARY [nM]>
103249.035208

> <BIOSOLVEIT.HYDE_ESTIMATED_AFFINITY_UPPER_BOUNDARY [nM]>
10258402.104524

> <BIOSOLVEIT.HYDE_LIGAND_EFFICIENCY range: ++, +, 0, -, -->
--

> <BIOSOLVEIT.HYDE_LIGAND_LIPOPHILIC_EFFICIENCY range: ++, +, 0, -, -->
--

> <BIOSOLVEIT.INTER_CLASH range: red, yellow, green>
green

> <BIOSOLVEIT.INTRA_CLASH range: red, yellow, green>
green

> <BIOSOLVEIT.LOGP>
3.1176

> <BIOSOLVEIT.MOLECULAR WEIGHT>
355.223

> <BIOSOLVEIT.MOLECULE_CHECKSUM>
LTE3LjA1Mjg7MC43NDE0MjU=

> <BIOSOLVEIT.TORSION_QUALITY range: red, yellow, green, not rotatable>
yellow

> <BIOSOLVEIT.TPSA>
69.04

> <BIOSOLVEIT.SEESAR_FAVORITE>
favorite

> <smc_score>
0.563

> <QED_score>
0.915

> <distance>
0.593

> <SimilarityPheSA_1>
0.71

> <Smiles>
O=C(Cc1ccc(Cl)c(Cl)c1)Nc1cnnn1C1CCOCC1

> <Similarity_SkelSpheres>
0.685

> <Cluster No>
182.0

> <QueryID>
JAG-UCB-a3ef7265-20

> <SimilarityPheSA>
0.7104

> <Postera series>
3-aminopyridine-like

> <PDB_code>
Mpro-x10324

> <Approach>
DGM_focussed_RL

> <ID>
20210618_359

> <SimilarityPheSA_2>
0.804

> <OPTIBRIUM.logD>
3.02299

> <OPTIBRIUM.BBB category>
-

> <OPTIBRIUM.logP>
3.02299

> <OPTIBRIUM.P-gp category>
no

> <OPTIBRIUM.logS>
2.32741

> <OPTIBRIUM.HIA category>
+

> <OPTIBRIUM.PPB90 category>
high

> <OPTIBRIUM.2D6 affinity category>
high

> <OPTIBRIUM.hERG pIC50>
4.85157

> <OPTIBRIUM.2C9 pKi>
5.12299

> <OPTIBRIUM.BBB log([brain]:[blood])>
-0.141794

> <OPTIBRIUM.logS @ pH7.4>
2.32741

$$$$
Compound 413_1_05
haSeeSAR  07122111353D 1   1.00000     0.00000     0
SeeSAR 11.0.2 hazemaj
 47 50  0  0  0  0            999 V2000
    5.5644   -2.0250   27.7324 Cl  0  0  0  0  0  0  0  0  0  0  0  0
    6.5482   -0.8355   26.8458 C   0  0  0  0  0  0  0  0  0  0  0  0
    7.8164   -1.1917   26.3987 C   0  0  0  0  0  0  0  0  0  0  0  0
    6.0386    0.4372   26.6106 C   0  0  0  0  0  0  0  0  0  0  0  0
    8.2925   -2.4328   26.6375 O   0  0  0  0  0  0  0  0  0  0  0  0
    8.5794   -0.2577   25.7064 C   0  0  0  0  0  0  0  0  0  0  0  0
    6.8193    1.3559   25.9167 C   0  0  0  0  0  0  0  0  0  0  0  0
    8.0362   -3.4813   25.7148 C   0  0  0  0  0  0  0  0  0  0  0  0
    8.0899    1.0207   25.4598 C   0  0  0  0  0  0  0  0  0  0  0  0
    9.9674   -0.6289   25.2083 C   0  0  0  0  0  0  0  0  0  0  0  0
    6.1764    2.9871   25.6100 Cl  0  0  0  0  0  0  0  0  0  0  0  0
   10.2134    0.0479   23.5477 S   0  0  0  0  0  0  0  0  0  0  0  0
   10.4288    1.4689   23.6354 O   0  0  0  0  0  0  0  0  0  0  0  0
   11.3612   -0.5751   22.9407 O   0  0  0  0  0  0  0  0  0  0  0  0
    8.8427   -0.2573   22.6060 N   0  0  0  0  0  0  0  0  0  0  0  0
    8.4439    0.4811   21.4936 C   0  0  0  0  0  0  0  0  0  0  0  0
    7.8638   -1.3236   22.8660 C   0  0  0  0  0  0  0  0  0  0  0  0
    9.0273    1.4803   21.0817 O   0  0  0  0  0  0  0  0  0  0  0  0
    7.2977   -0.0722   20.9296 N   0  0  0  0  0  0  0  0  0  0  0  0
    6.9457   -1.2925   21.6600 C   0  0  0  0  0  0  0  0  0  0  0  0
    6.5902    0.4405   19.8339 C   0  0  0  0  0  0  0  0  0  0  0  0
    7.1005    0.2345   18.5578 C   0  0  0  0  0  0  0  0  0  0  0  0
    5.3979    1.1464   19.9743 C   0  0  0  0  0  0  0  0  0  0  0  0
    8.2391   -0.4409   18.4416 F   0  0  0  0  0  0  0  0  0  0  0  0
    6.4535    0.7081   17.4822 N   0  0  0  0  0  0  0  0  0  0  0  0
    4.7403    1.6310   18.8474 C   0  0  0  0  0  0  0  0  0  0  0  0
    4.8338    1.3858   21.2251 C   0  0  0  0  0  0  0  0  0  0  0  0
    5.3045    1.3903   17.5988 C   0  0  0  0  0  0  0  0  0  0  0  0
    3.5480    2.3386   18.9614 C   0  0  0  0  0  0  0  0  0  0  0  0
    3.6436    2.0903   21.3677 C   0  0  0  0  0  0  0  0  0  0  0  0
    3.0083    2.5625   20.2240 C   0  0  0  0  0  0  0  0  0  0  0  0
    5.1263    0.6876   26.9348 H   0  0  0  0  0  0  0  0  0  0  0  0
    8.4581   -4.3259   26.0444 H   0  0  0  0  0  0  0  0  0  0  0  0
    7.0490   -3.6141   25.6270 H   0  0  0  0  0  0  0  0  0  0  0  0
    8.4210   -3.2424   24.8233 H   0  0  0  0  0  0  0  0  0  0  0  0
    8.6428    1.6887   24.9617 H   0  0  0  0  0  0  0  0  0  0  0  0
   10.0558   -1.6245   25.1790 H   0  0  0  0  0  0  0  0  0  0  0  0
   10.6559   -0.2512   25.8275 H   0  0  0  0  0  0  0  0  0  0  0  0
    7.3526   -1.1381   23.7051 H   0  0  0  0  0  0  0  0  0  0  0  0
    8.3186   -2.2109   22.9420 H   0  0  0  0  0  0  0  0  0  0  0  0
    5.9891   -1.2622   21.9501 H   0  0  0  0  0  0  0  0  0  0  0  0
    7.0948   -2.0981   21.0866 H   0  0  0  0  0  0  0  0  0  0  0  0
    5.2970    1.0421   22.0420 H   0  0  0  0  0  0  0  0  0  0  0  0
    4.8472    1.7305   16.7772 H   0  0  0  0  0  0  0  0  0  0  0  0
    3.0840    2.6825   18.1450 H   0  0  0  0  0  0  0  0  0  0  0  0
    3.2525    2.2539   22.2734 H   0  0  0  0  0  0  0  0  0  0  0  0
    2.1513    3.0703   20.3106 H   0  0  0  0  0  0  0  0  0  0  0  0
  1  2  1  0  0  0  0
  2  3  2  0  0  0  0
  2  4  1  0  0  0  0
  3  5  1  0  0  0  0
  3  6  1  0  0  0  0
  4  7  2  0  0  0  0
  5  8  1  0  0  0  0
  6  9  2  0  0  0  0
  6 10  1  0  0  0  0
  7 11  1  0  0  0  0
 10 12  1  0  0  0  0
 12 13  2  0  0  0  0
 12 14  2  0  0  0  0
 12 15  1  0  0  0  0
 15 16  1  0  0  0  0
 15 17  1  0  0  0  0
 16 18  2  0  0  0  0
 16 19  1  0  0  0  0
 17 20  1  0  0  0  0
 19 21  1  0  0  0  0
 21 22  2  0  0  0  0
 21 23  1  0  0  0  0
 22 24  1  0  0  0  0
 22 25  1  0  0  0  0
 23 26  1  0  0  0  0
 23 27  2  0  0  0  0
 25 28  2  0  0  0  0
 26 29  2  0  0  0  0
 27 30  1  0  0  0  0
 29 31  1  0  0  0  0
  7  9  1  0  0  0  0
 19 20  1  0  0  0  0
 26 28  1  0  0  0  0
 30 31  2  0  0  0  0
  4 32  1  0  0  0  0
  8 33  1  0  0  0  0
  8 34  1  0  0  0  0
  8 35  1  0  0  0  0
  9 36  1  0  0  0  0
 10 37  1  0  0  0  0
 10 38  1  0  0  0  0
 17 39  1  0  0  0  0
 17 40  1  0  0  0  0
 20 41  1  0  0  0  0
 20 42  1  0  0  0  0
 27 43  1  0  0  0  0
 28 44  1  0  0  0  0
 29 45  1  0  0  0  0
 30 46  1  0  0  0  0
 31 47  1  0  0  0  0
M  END
> <BIOSOLVEIT.HYDE_ESTIMATED_AFFINITY_LOWER_BOUNDARY [nM]>
103484.378268

> <BIOSOLVEIT.HYDE_ESTIMATED_AFFINITY_UPPER_BOUNDARY [nM]>
10281784.828979

> <BIOSOLVEIT.HYDE_LIGAND_EFFICIENCY range: ++, +, 0, -, -->
--

> <BIOSOLVEIT.HYDE_LIGAND_LIPOPHILIC_EFFICIENCY range: ++, +, 0, -, -->
--

> <BIOSOLVEIT.INTER_CLASH range: red, yellow, green>
green

> <BIOSOLVEIT.INTRA_CLASH range: red, yellow, green>
green

> <BIOSOLVEIT.LOGP>
5.1119

> <BIOSOLVEIT.MOLECULAR WEIGHT>
484.332

> <BIOSOLVEIT.MOLECULE_CHECKSUM>
LTE3LjA0NzE7MC41NDk5MDc=

> <BIOSOLVEIT.TORSION_QUALITY range: red, yellow, green, not rotatable>
yellow

> <BIOSOLVEIT.TPSA>
79.81

> <BIOSOLVEIT.SEESAR_FAVORITE>
favorite

> <smc_score>
0.75

> <QED_score>
0.5

> <distance>
0.655

> <SimilarityPheSA_1>
0.638

> <Smiles>
COc1c(Cl)cc(Cl)cc1CS(=O)(=O)N1CCN(c2c(F)ncc3ccccc23)C1=O

> <Similarity_SkelSpheres>
0.701

> <Cluster No>
211.0

> <QueryID>
PET-UNK-c9c1e0d8-3

> <SimilarityPheSA>
0.6376

> <Postera series>
3-aminopyridine-like

> <PDB_code>
Mpro-x12587

> <Approach>
DGM_focussed_RL

> <ID>
20210618_412

> <SimilarityPheSA_2>
0.729

> <OPTIBRIUM.logD>
3.2737

> <OPTIBRIUM.BBB category>
-

> <OPTIBRIUM.logP>
3.2737

> <OPTIBRIUM.P-gp category>
yes

> <OPTIBRIUM.logS>
-0.435268

> <OPTIBRIUM.HIA category>
+

> <OPTIBRIUM.PPB90 category>
high

> <OPTIBRIUM.2D6 affinity category>
medium

> <OPTIBRIUM.hERG pIC50>
5.81388

> <OPTIBRIUM.2C9 pKi>
5.97686

> <OPTIBRIUM.BBB log([brain]:[blood])>
-0.733853

> <OPTIBRIUM.logS @ pH7.4>
-0.435268

$$$$
Compound 414_1_01
haSeeSAR  07122111353D 1   1.00000     0.00000     0
SeeSAR 11.0.2 hazemaj
 27 29  0  0  0  0            999 V2000
   14.0858   -0.9002   22.4678 Cl  0  0  0  0  0  0  0  0  0  0  0  0
   12.4200   -0.2808   22.5609 C   0  0  0  0  0  0  0  0  0  0  0  0
   11.3181   -1.1315   22.6504 C   0  0  0  0  0  0  0  0  0  0  0  0
   12.2303    1.0962   22.5388 C   0  0  0  0  0  0  0  0  0  0  0  0
   11.5436   -2.4416   22.6784 F   0  0  0  0  0  0  0  0  0  0  0  0
   10.0149   -0.6441   22.6976 C   0  0  0  0  0  0  0  0  0  0  0  0
   10.9378    1.6038   22.6092 C   0  0  0  0  0  0  0  0  0  0  0  0
    8.7988   -1.2197   22.7472 O   0  0  0  0  0  0  0  0  0  0  0  0
    9.8723    0.7162   22.6936 C   0  0  0  0  0  0  0  0  0  0  0  0
   10.6919    3.3669   22.5847 Cl  0  0  0  0  0  0  0  0  0  0  0  0
    7.8833   -0.2875   23.2818 C   0  0  0  0  0  0  0  0  0  0  0  0
    8.3995    1.0389   22.7803 C   0  0  2  0  0  0  0  0  0  0  0  0
    7.7713    1.3438   21.4264 C   0  0  0  0  0  0  0  0  0  0  0  0
    8.3474    2.0900   20.6347 O   0  0  0  0  0  0  0  0  0  0  0  0
    6.6068    0.8068   21.1015 N   0  0  0  0  0  0  0  0  0  0  0  0
    6.2233    0.7268   19.7569 C   0  0  0  0  0  0  0  0  0  0  0  0
    4.8486    1.4320   19.0404 S   0  0  0  0  0  0  0  0  0  0  0  0
    6.8766    0.0716   18.7564 C   0  0  0  0  0  0  0  0  0  0  0  0
    5.1386    0.8539   17.4634 C   0  0  0  0  0  0  0  0  0  0  0  0
    6.2598    0.1620   17.5281 N   0  0  0  0  0  0  0  0  0  0  0  0
   13.0139    1.7142   22.4732 H   0  0  0  0  0  0  0  0  0  0  0  0
    7.8854   -0.3171   24.2812 H   0  0  0  0  0  0  0  0  0  0  0  0
    6.9580   -0.4615   22.9449 H   0  0  0  0  0  0  0  0  0  0  0  0
    8.2239    1.7716   23.4378 H   0  0  0  0  0  0  0  0  0  0  0  0
    6.0003    0.4580   21.8160 H   0  0  0  0  0  0  0  0  0  0  0  0
    7.7290   -0.4307   18.9012 H   0  0  0  0  0  0  0  0  0  0  0  0
    4.5732    1.0080   16.6531 H   0  0  0  0  0  0  0  0  0  0  0  0
  1  2  1  0  0  0  0
  2  3  2  0  0  0  0
  2  4  1  0  0  0  0
  3  5  1  0  0  0  0
  3  6  1  0  0  0  0
  4  7  2  0  0  0  0
  6  8  1  0  0  0  0
  6  9  2  0  0  0  0
  7 10  1  0  0  0  0
  8 11  1  0  0  0  0
  9 12  1  0  0  0  0
 12 13  1  0  0  0  0
 13 14  2  0  0  0  0
 13 15  1  0  0  0  0
 15 16  1  0  0  0  0
 16 17  1  0  0  0  0
 16 18  2  0  0  0  0
 17 19  1  0  0  0  0
 18 20  1  0  0  0  0
  7  9  1  0  0  0  0
 11 12  1  0  0  0  0
 19 20  2  0  0  0  0
  4 21  1  0  0  0  0
 11 22  1  0  0  0  0
 11 23  1  0  0  0  0
 12 24  1  0  0  0  0
 15 25  1  0  0  0  0
 18 26  1  0  0  0  0
 19 27  1  0  0  0  0
M  END
> <BIOSOLVEIT.HYDE_ESTIMATED_AFFINITY_LOWER_BOUNDARY [nM]>
104631.827492

> <BIOSOLVEIT.HYDE_ESTIMATED_AFFINITY_UPPER_BOUNDARY [nM]>
10395790.693647

> <BIOSOLVEIT.HYDE_LIGAND_EFFICIENCY range: ++, +, 0, -, -->
-

> <BIOSOLVEIT.HYDE_LIGAND_LIPOPHILIC_EFFICIENCY range: ++, +, 0, -, -->
--

> <BIOSOLVEIT.INTER_CLASH range: red, yellow, green>
yellow

> <BIOSOLVEIT.INTRA_CLASH range: red, yellow, green>
green

> <BIOSOLVEIT.LOGP>
3.7037

> <BIOSOLVEIT.MOLECULAR WEIGHT>
333.168

> <BIOSOLVEIT.MOLECULE_CHECKSUM>
LTE3LjAxOTg7MC44NTA5OQ==

> <BIOSOLVEIT.TORSION_QUALITY range: red, yellow, green, not rotatable>
green

> <BIOSOLVEIT.TPSA>
51.22

> <BIOSOLVEIT.SEESAR_FAVORITE>
favorite

> <smc_score>
0.75

> <QED_score>
0.853

> <distance>
0.603

> <SimilarityPheSA_1>
0.755

> <Smiles>
O=C(Nc1cncs1)C1COc2c(F)c(Cl)cc(Cl)c21

> <Similarity_SkelSpheres>
0.536

> <Cluster No>
212.0

> <QueryID>
JAG-UCB-a3ef7265-20

> <SimilarityPheSA>
0.7546

> <Postera series>
3-aminopyridine-like

> <PDB_code>
Mpro-x10324

> <Approach>
DGM_focussed_RL

> <ID>
20210618_413

> <SimilarityPheSA_2>
0.813

> <OPTIBRIUM.logD>
3.40435

> <OPTIBRIUM.BBB category>
+

> <OPTIBRIUM.logP>
3.40435

> <OPTIBRIUM.P-gp category>
no

> <OPTIBRIUM.logS>
1.47325

> <OPTIBRIUM.HIA category>
+

> <OPTIBRIUM.PPB90 category>
high

> <OPTIBRIUM.2D6 affinity category>
high

> <OPTIBRIUM.hERG pIC50>
4.72986

> <OPTIBRIUM.2C9 pKi>
5.15971

> <OPTIBRIUM.BBB log([brain]:[blood])>
-0.397127

> <OPTIBRIUM.logS @ pH7.4>
1.47325

$$$$
Compound 540_1_07
haSeeSAR  07122111353D 1   1.00000     0.00000     0
SeeSAR 11.0.2 hazemaj
 35 38  0  0  0  0            999 V2000
   11.5631    1.9511   22.4489 Cl  0  0  0  0  0  0  0  0  0  0  0  0
   11.0660    0.2637   22.7210 C   0  0  0  0  0  0  0  0  0  0  0  0
   12.0232   -0.7446   22.6961 C   0  0  0  0  0  0  0  0  0  0  0  0
    9.7400   -0.0851   22.9588 C   0  0  0  0  0  0  0  0  0  0  0  0
   13.7371   -0.3678   22.3963 Cl  0  0  0  0  0  0  0  0  0  0  0  0
   11.6115   -2.0559   22.9117 C   0  0  0  0  0  0  0  0  0  0  0  0
    9.3034   -1.3644   23.1766 C   0  0  0  0  0  0  0  0  0  0  0  0
    8.5375    0.8310   23.0284 C   0  0  1  0  0  0  0  0  0  0  0  0
   10.2761   -2.3590   23.1491 C   0  0  0  0  0  0  0  0  0  0  0  0
    7.9672   -1.3722   23.3822 O   0  0  0  0  0  0  0  0  0  0  0  0
    7.9575    1.1189   21.6534 C   0  0  0  0  0  0  0  0  0  0  0  0
    7.6293   -0.0747   23.8340 C   0  0  0  0  0  0  0  0  0  0  0  0
    8.4964    1.9471   20.9191 O   0  0  0  0  0  0  0  0  0  0  0  0
    6.8735    0.4795   21.2456 N   0  0  0  0  0  0  0  0  0  0  0  0
    6.3386    0.7449   19.9778 C   0  0  0  0  0  0  0  0  0  0  0  0
    5.1599    1.4360   19.8057 N   0  0  0  0  0  0  0  0  0  0  0  0
    7.0506    0.2811   18.9025 C   0  0  0  0  0  0  0  0  0  0  0  0
    4.6981    1.6623   18.5507 C   0  0  0  0  0  0  0  0  0  0  0  0
    4.2517    1.9969   20.6523 C   0  0  0  0  0  0  0  0  0  0  0  0
    6.5704    0.5157   17.6396 N   0  0  0  0  0  0  0  0  0  0  0  0
    3.5654    2.3235   18.6379 N   0  0  0  0  0  0  0  0  0  0  0  0
    5.4423    1.1762   17.4420 C   0  0  0  0  0  0  0  0  0  0  0  0
    3.3059    2.5215   19.9123 N   0  0  0  0  0  0  0  0  0  0  0  0
    4.2856    2.0287   22.1741 C   0  0  0  0  0  0  0  0  0  0  0  0
   12.2877   -2.7925   22.8955 H   0  0  0  0  0  0  0  0  0  0  0  0
    8.7469    1.6747   23.5226 H   0  0  0  0  0  0  0  0  0  0  0  0
   10.0091   -3.3103   23.3033 H   0  0  0  0  0  0  0  0  0  0  0  0
    6.6677    0.1285   23.6496 H   0  0  0  0  0  0  0  0  0  0  0  0
    7.8081    0.0201   24.8133 H   0  0  0  0  0  0  0  0  0  0  0  0
    6.4357   -0.1933   21.8420 H   0  0  0  0  0  0  0  0  0  0  0  0
    7.9056   -0.2200   19.0367 H   0  0  0  0  0  0  0  0  0  0  0  0
    5.1123    1.3339   16.5113 H   0  0  0  0  0  0  0  0  0  0  0  0
    3.4798    2.5123   22.5154 H   0  0  0  0  0  0  0  0  0  0  0  0
    4.2872    1.0930   22.5270 H   0  0  0  0  0  0  0  0  0  0  0  0
    5.1123    2.5015   22.4791 H   0  0  0  0  0  0  0  0  0  0  0  0
  1  2  1  0  0  0  0
  2  3  2  0  0  0  0
  2  4  1  0  0  0  0
  3  5  1  0  0  0  0
  3  6  1  0  0  0  0
  4  7  2  0  0  0  0
  4  8  1  0  0  0  0
  6  9  2  0  0  0  0
  7 10  1  0  0  0  0
  8 11  1  0  0  0  0
  8 12  1  0  0  0  0
 11 13  2  0  0  0  0
 11 14  1  0  0  0  0
 14 15  1  0  0  0  0
 15 16  1  0  0  0  0
 15 17  2  0  0  0  0
 16 18  1  0  0  0  0
 16 19  1  0  0  0  0
 17 20  1  0  0  0  0
 18 21  2  0  0  0  0
 18 22  1  0  0  0  0
 19 23  2  0  0  0  0
 19 24  1  0  0  0  0
  7  9  1  0  0  0  0
 10 12  1  0  0  0  0
 20 22  2  0  0  0  0
 21 23  1  0  0  0  0
  6 25  1  0  0  0  0
  8 26  1  0  0  0  0
  9 27  1  0  0  0  0
 12 28  1  0  0  0  0
 12 29  1  0  0  0  0
 14 30  1  0  0  0  0
 17 31  1  0  0  0  0
 22 32  1  0  0  0  0
 24 33  1  0  0  0  0
 24 34  1  0  0  0  0
 24 35  1  0  0  0  0
M  END
> <BIOSOLVEIT.HYDE_ESTIMATED_AFFINITY_LOWER_BOUNDARY [nM]>
105866.345508

> <BIOSOLVEIT.HYDE_ESTIMATED_AFFINITY_UPPER_BOUNDARY [nM]>
10518447.357562

> <BIOSOLVEIT.HYDE_LIGAND_EFFICIENCY range: ++, +, 0, -, -->
--

> <BIOSOLVEIT.HYDE_LIGAND_LIPOPHILIC_EFFICIENCY range: ++, +, 0, -, -->
--

> <BIOSOLVEIT.INTER_CLASH range: red, yellow, green>
green

> <BIOSOLVEIT.INTRA_CLASH range: red, yellow, green>
green

> <BIOSOLVEIT.LOGP>
2.85422

> <BIOSOLVEIT.MOLECULAR WEIGHT>
364.191

> <BIOSOLVEIT.MOLECULE_CHECKSUM>
LTE2Ljk5MDc7MC43MDc5NDc=

> <BIOSOLVEIT.TORSION_QUALITY range: red, yellow, green, not rotatable>
green

> <BIOSOLVEIT.TPSA>
81.93

> <BIOSOLVEIT.SEESAR_FAVORITE>
favorite

> <smc_score>
0.688

> <QED_score>
0.756

> <distance>
0.608

> <SimilarityPheSA_1>
0.675

> <Smiles>
Cc1nnc2cncc(NC(=O)C3COc4ccc(Cl)c(Cl)c43)n12

> <Similarity_SkelSpheres>
0.572

> <Cluster No>
288.0

> <QueryID>
EDJ-MED-e4b030d8-13

> <SimilarityPheSA>
0.6751

> <Postera series>
3-aminopyridine-like

> <PDB_code>
Mpro-x12207

> <Approach>
DGM_focussed_RL

> <ID>
20210618_539

> <SimilarityPheSA_2>
0.919

> <OPTIBRIUM.logD>
2.6583

> <OPTIBRIUM.BBB category>
-

> <OPTIBRIUM.logP>
2.6583

> <OPTIBRIUM.P-gp category>
no

> <OPTIBRIUM.logS>
1.66321

> <OPTIBRIUM.HIA category>
+

> <OPTIBRIUM.PPB90 category>
high

> <OPTIBRIUM.2D6 affinity category>
high

> <OPTIBRIUM.hERG pIC50>
4.70586

> <OPTIBRIUM.2C9 pKi>
5.48148

> <OPTIBRIUM.BBB log([brain]:[blood])>
-0.434145

> <OPTIBRIUM.logS @ pH7.4>
1.66321

$$$$
Compound 360_1_04
haSeeSAR  07122111353D 1   1.00000     0.00000     0
SeeSAR 11.0.2 hazemaj
 39 41  0  0  0  0            999 V2000
   12.8791    1.9322   23.3228 Cl  0  0  0  0  0  0  0  0  0  0  0  0
   11.7335    0.6649   22.8240 C   0  0  0  0  0  0  0  0  0  0  0  0
   12.2143   -0.5494   22.3455 C   0  0  0  0  0  0  0  0  0  0  0  0
   10.3647    0.8936   22.9151 C   0  0  0  0  0  0  0  0  0  0  0  0
   13.9686   -0.8303   22.2346 Cl  0  0  0  0  0  0  0  0  0  0  0  0
   11.3361   -1.5529   21.9495 C   0  0  0  0  0  0  0  0  0  0  0  0
    9.4903   -0.1123   22.5185 C   0  0  0  0  0  0  0  0  0  0  0  0
    9.9659   -1.3282   22.0387 C   0  0  0  0  0  0  0  0  0  0  0  0
    7.9932    0.1333   22.6159 C   0  0  0  0  0  0  0  0  0  0  0  0
    7.4890    0.7158   21.3057 C   0  0  0  0  0  0  0  0  0  0  0  0
    8.1847    1.5154   20.6794 O   0  0  0  0  0  0  0  0  0  0  0  0
    6.3026    0.3634   20.8381 N   0  0  0  0  0  0  0  0  0  0  0  0
    6.0029    0.5425   19.4809 C   0  0  0  0  0  0  0  0  0  0  0  0
    4.9411    1.2217   18.9693 N   0  0  0  0  0  0  0  0  0  0  0  0
    6.7218    0.0694   18.4251 C   0  0  0  0  0  0  0  0  0  0  0  0
    5.0274    1.1458   17.6636 N   0  0  0  0  0  0  0  0  0  0  0  0
    3.8830    1.9005   19.7353 C   0  0  0  0  0  0  0  0  0  0  0  0
    6.0545    0.4798   17.3100 N   0  0  0  0  0  0  0  0  0  0  0  0
    3.0212    2.7331   18.8019 C   0  0  0  0  0  0  0  0  0  0  0  0
    4.4627    2.8218   20.7979 C   0  0  0  0  0  0  0  0  0  0  0  0
    2.2534    3.7890   19.5839 C   0  0  0  0  0  0  0  0  0  0  0  0
    3.3340    3.3835   21.6508 C   0  0  0  0  0  0  0  0  0  0  0  0
    2.0963    3.4164   20.9469 O   0  0  0  0  0  0  0  0  0  0  0  0
   10.0158    1.7653   23.2593 H   0  0  0  0  0  0  0  0  0  0  0  0
   11.6850   -2.4246   21.6052 H   0  0  0  0  0  0  0  0  0  0  0  0
    9.3230   -2.0407   21.7577 H   0  0  0  0  0  0  0  0  0  0  0  0
    7.8085    0.7761   23.3594 H   0  0  0  0  0  0  0  0  0  0  0  0
    7.5247   -0.7311   22.7985 H   0  0  0  0  0  0  0  0  0  0  0  0
    5.6197   -0.0306   21.4532 H   0  0  0  0  0  0  0  0  0  0  0  0
    7.5644   -0.4678   18.4607 H   0  0  0  0  0  0  0  0  0  0  0  0
    3.3101    1.2116   20.1794 H   0  0  0  0  0  0  0  0  0  0  0  0
    2.3720    2.1347   18.3322 H   0  0  0  0  0  0  0  0  0  0  0  0
    3.6066    3.1838   18.1280 H   0  0  0  0  0  0  0  0  0  0  0  0
    4.9530    3.5733   20.3564 H   0  0  0  0  0  0  0  0  0  0  0  0
    5.0942    2.3067   21.3775 H   0  0  0  0  0  0  0  0  0  0  0  0
    1.3493    3.9046   19.1723 H   0  0  0  0  0  0  0  0  0  0  0  0
    2.7531    4.6539   19.5390 H   0  0  0  0  0  0  0  0  0  0  0  0
    3.5719    4.3142   21.9284 H   0  0  0  0  0  0  0  0  0  0  0  0
    3.2277    2.8102   22.4633 H   0  0  0  0  0  0  0  0  0  0  0  0
  1  2  1  0  0  0  0
  2  3  2  0  0  0  0
  2  4  1  0  0  0  0
  3  5  1  0  0  0  0
  3  6  1  0  0  0  0
  4  7  2  0  0  0  0
  6  8  2  0  0  0  0
  7  9  1  0  0  0  0
  9 10  1  0  0  0  0
 10 11  2  0  0  0  0
 10 12  1  0  0  0  0
 12 13  1  0  0  0  0
 13 14  1  0  0  0  0
 13 15  2  0  0  0  0
 14 16  1  0  0  0  0
 14 17  1  0  0  0  0
 15 18  1  0  0  0  0
 17 19  1  0  0  0  0
 17 20  1  0  0  0  0
 19 21  1  0  0  0  0
 20 22  1  0  0  0  0
 21 23  1  0  0  0  0
  7  8  1  0  0  0  0
 16 18  2  0  0  0  0
 22 23  1  0  0  0  0
  4 24  1  0  0  0  0
  6 25  1  0  0  0  0
  8 26  1  0  0  0  0
  9 27  1  0  0  0  0
  9 28  1  0  0  0  0
 12 29  1  0  0  0  0
 15 30  1  0  0  0  0
 17 31  1  0  0  0  0
 19 32  1  0  0  0  0
 19 33  1  0  0  0  0
 20 34  1  0  0  0  0
 20 35  1  0  0  0  0
 21 36  1  0  0  0  0
 21 37  1  0  0  0  0
 22 38  1  0  0  0  0
 22 39  1  0  0  0  0
M  END
> <BIOSOLVEIT.HYDE_ESTIMATED_AFFINITY_LOWER_BOUNDARY [nM]>
107463.546496

> <BIOSOLVEIT.HYDE_ESTIMATED_AFFINITY_UPPER_BOUNDARY [nM]>
10677138.719147

> <BIOSOLVEIT.HYDE_LIGAND_EFFICIENCY range: ++, +, 0, -, -->
--

> <BIOSOLVEIT.HYDE_LIGAND_LIPOPHILIC_EFFICIENCY range: ++, +, 0, -, -->
--

> <BIOSOLVEIT.INTER_CLASH range: red, yellow, green>
green

> <BIOSOLVEIT.INTRA_CLASH range: red, yellow, green>
green

> <BIOSOLVEIT.LOGP>
3.1176

> <BIOSOLVEIT.MOLECULAR WEIGHT>
355.223

> <BIOSOLVEIT.MOLECULE_CHECKSUM>
LTE2Ljk1MzY7MC43MzcxMTM=

> <BIOSOLVEIT.TORSION_QUALITY range: red, yellow, green, not rotatable>
yellow

> <BIOSOLVEIT.TPSA>
69.04

> <BIOSOLVEIT.SEESAR_FAVORITE>
favorite

> <smc_score>
0.563

> <QED_score>
0.915

> <distance>
0.593

> <SimilarityPheSA_1>
0.71

> <Smiles>
O=C(Cc1ccc(Cl)c(Cl)c1)Nc1cnnn1C1CCOCC1

> <Similarity_SkelSpheres>
0.685

> <Cluster No>
182.0

> <QueryID>
JAG-UCB-a3ef7265-20

> <SimilarityPheSA>
0.7104

> <Postera series>
3-aminopyridine-like

> <PDB_code>
Mpro-x10324

> <Approach>
DGM_focussed_RL

> <ID>
20210618_359

> <SimilarityPheSA_2>
0.804

> <OPTIBRIUM.logD>
3.02299

> <OPTIBRIUM.BBB category>
-

> <OPTIBRIUM.logP>
3.02299

> <OPTIBRIUM.P-gp category>
no

> <OPTIBRIUM.logS>
2.32741

> <OPTIBRIUM.HIA category>
+

> <OPTIBRIUM.PPB90 category>
high

> <OPTIBRIUM.2D6 affinity category>
high

> <OPTIBRIUM.hERG pIC50>
4.85157

> <OPTIBRIUM.2C9 pKi>
5.12299

> <OPTIBRIUM.BBB log([brain]:[blood])>
-0.141794

> <OPTIBRIUM.logS @ pH7.4>
2.32741

$$$$
Compound 664_1_02
haSeeSAR  07122111353D 1   1.00000     0.00000     0
SeeSAR 11.0.2 hazemaj
 43 46  0  0  0  0            999 V2000
    3.5371    1.7149   26.8444 Cl  0  0  0  0  0  0  0  0  0  0  0  0
    5.1673    1.6633   26.1321 C   0  0  0  0  0  0  0  0  0  0  0  0
    5.4703    2.4697   25.0353 C   0  0  0  0  0  0  0  0  0  0  0  0
    6.1454    0.8278   26.6595 C   0  0  0  0  0  0  0  0  0  0  0  0
    4.5297    3.2639   24.5311 F   0  0  0  0  0  0  0  0  0  0  0  0
    6.7456    2.4477   24.4789 C   0  0  0  0  0  0  0  0  0  0  0  0
    7.4087    0.8274   26.0672 C   0  0  0  0  0  0  0  0  0  0  0  0
    7.7404    1.6241   24.9700 C   0  0  0  0  0  0  0  0  0  0  0  0
    7.3785    3.2259   23.3429 C   0  0  0  0  0  0  0  0  0  0  0  0
    8.8561    1.8143   24.2364 O   0  0  0  0  0  0  0  0  0  0  0  0
    8.5980    2.4099   22.9755 C   0  0  1  0  0  0  0  0  0  0  0  0
    8.2977    1.3765   21.9049 C   0  0  0  0  0  0  0  0  0  0  0  0
    8.8926    1.4152   20.8279 O   0  0  0  0  0  0  0  0  0  0  0  0
    7.3966    0.4341   22.1294 N   0  0  0  0  0  0  0  0  0  0  0  0
    7.1057   -0.5665   21.0927 C   0  0  0  0  0  0  0  0  0  0  0  0
    6.5053    0.1230   19.8761 C   0  0  0  0  0  0  0  0  0  0  0  0
    5.3803    0.9306   20.0086 C   0  0  0  0  0  0  0  0  0  0  0  0
    7.1027   -0.0324   18.6319 C   0  0  0  0  0  0  0  0  0  0  0  0
    4.8723    1.5292   18.8588 C   0  0  0  0  0  0  0  0  0  0  0  0
    4.7334    1.1666   21.3643 C   0  0  0  0  0  0  0  0  0  0  0  0
    6.5865    0.5861   17.5572 N   0  0  0  0  0  0  0  0  0  0  0  0
    5.4920    1.3589   17.6260 C   0  0  0  0  0  0  0  0  0  0  0  0
    3.6140    2.3769   18.9361 C   0  0  0  0  0  0  0  0  0  0  0  0
    3.2869    1.5997   21.2316 C   0  0  0  0  0  0  0  0  0  0  0  0
    3.3260    2.8403   20.3546 C   0  0  0  0  0  0  0  0  0  0  0  0
    5.9482    0.2410   27.4450 H   0  0  0  0  0  0  0  0  0  0  0  0
    8.1116    0.2263   26.4476 H   0  0  0  0  0  0  0  0  0  0  0  0
    7.6414    4.1427   23.6434 H   0  0  0  0  0  0  0  0  0  0  0  0
    6.7510    3.2964   22.5675 H   0  0  0  0  0  0  0  0  0  0  0  0
    9.3545    3.0024   22.6984 H   0  0  0  0  0  0  0  0  0  0  0  0
    6.9133    0.4027   23.0043 H   0  0  0  0  0  0  0  0  0  0  0  0
    6.4560   -1.2375   21.4500 H   0  0  0  0  0  0  0  0  0  0  0  0
    7.9521   -1.0295   20.8295 H   0  0  0  0  0  0  0  0  0  0  0  0
    7.9172   -0.6047   18.5362 H   0  0  0  0  0  0  0  0  0  0  0  0
    5.2420    1.8805   21.8457 H   0  0  0  0  0  0  0  0  0  0  0  0
    4.7698    0.3180   21.8922 H   0  0  0  0  0  0  0  0  0  0  0  0
    5.1292    1.8034   16.8071 H   0  0  0  0  0  0  0  0  0  0  0  0
    2.8393    1.8354   18.6099 H   0  0  0  0  0  0  0  0  0  0  0  0
    3.7294    3.1799   18.3513 H   0  0  0  0  0  0  0  0  0  0  0  0
    2.9010    1.8154   22.1285 H   0  0  0  0  0  0  0  0  0  0  0  0
    2.7431    0.8806   20.7989 H   0  0  0  0  0  0  0  0  0  0  0  0
    2.4451    3.3124   20.3888 H   0  0  0  0  0  0  0  0  0  0  0  0
    4.0477    3.4583   20.6665 H   0  0  0  0  0  0  0  0  0  0  0  0
  1  2  1  0  0  0  0
  2  3  2  0  0  0  0
  2  4  1  0  0  0  0
  3  5  1  0  0  0  0
  3  6  1  0  0  0  0
  4  7  2  0  0  0  0
  6  8  2  0  0  0  0
  6  9  1  0  0  0  0
  8 10  1  0  0  0  0
  9 11  1  0  0  0  0
 11 12  1  0  0  0  0
 12 13  2  0  0  0  0
 12 14  1  0  0  0  0
 14 15  1  0  0  0  0
 15 16  1  0  0  0  0
 16 17  2  0  0  0  0
 16 18  1  0  0  0  0
 17 19  1  0  0  0  0
 17 20  1  0  0  0  0
 18 21  2  0  0  0  0
 19 22  2  0  0  0  0
 19 23  1  0  0  0  0
 20 24  1  0  0  0  0
 23 25  1  0  0  0  0
  7  8  1  0  0  0  0
 10 11  1  0  0  0  0
 21 22  1  0  0  0  0
 24 25  1  0  0  0  0
  4 26  1  0  0  0  0
  7 27  1  0  0  0  0
  9 28  1  0  0  0  0
  9 29  1  0  0  0  0
 11 30  1  0  0  0  0
 14 31  1  0  0  0  0
 15 32  1  0  0  0  0
 15 33  1  0  0  0  0
 18 34  1  0  0  0  0
 20 35  1  0  0  0  0
 20 36  1  0  0  0  0
 22 37  1  0  0  0  0
 23 38  1  0  0  0  0
 23 39  1  0  0  0  0
 24 40  1  0  0  0  0
 24 41  1  0  0  0  0
 25 42  1  0  0  0  0
 25 43  1  0  0  0  0
M  END
> <BIOSOLVEIT.HYDE_ESTIMATED_AFFINITY_LOWER_BOUNDARY [nM]>
107663.068399

> <BIOSOLVEIT.HYDE_ESTIMATED_AFFINITY_UPPER_BOUNDARY [nM]>
10696962.399861

> <BIOSOLVEIT.HYDE_LIGAND_EFFICIENCY range: ++, +, 0, -, -->
--

> <BIOSOLVEIT.HYDE_LIGAND_LIPOPHILIC_EFFICIENCY range: ++, +, 0, -, -->
--

> <BIOSOLVEIT.INTER_CLASH range: red, yellow, green>
green

> <BIOSOLVEIT.INTRA_CLASH range: red, yellow, green>
yellow

> <BIOSOLVEIT.LOGP>
3.3728

> <BIOSOLVEIT.MOLECULAR WEIGHT>
360.814

> <BIOSOLVEIT.MOLECULE_CHECKSUM>
LTE2Ljk0OTswLjY3Nzk2

> <BIOSOLVEIT.TORSION_QUALITY range: red, yellow, green, not rotatable>
green

> <BIOSOLVEIT.TPSA>
51.22

> <BIOSOLVEIT.SEESAR_FAVORITE>
favorite

> <smc_score>
0.688

> <QED_score>
0.913

> <distance>
0.667

> <SimilarityPheSA_1>
0.642

> <Smiles>
O=C(NCc1cncc2c1CCCC2)C1Cc2c(ccc(Cl)c2F)O1

> <Similarity_SkelSpheres>
0.699

> <Cluster No>
367.0

> <QueryID>
MAT-POS-199e2e7c-1

> <SimilarityPheSA>
0.6416

> <Postera series>
3-aminopyridine-like

> <PDB_code>
Mpro-x12000

> <Approach>
DGM_focussed_RL

> <ID>
20210618_663

> <SimilarityPheSA_2>
0.782

> <OPTIBRIUM.logD>
3.34577

> <OPTIBRIUM.BBB category>
+

> <OPTIBRIUM.logP>
3.34577

> <OPTIBRIUM.P-gp category>
no

> <OPTIBRIUM.logS>
1.10716

> <OPTIBRIUM.HIA category>
+

> <OPTIBRIUM.PPB90 category>
high

> <OPTIBRIUM.2D6 affinity category>
high

> <OPTIBRIUM.hERG pIC50>
4.67952

> <OPTIBRIUM.2C9 pKi>
5.31822

> <OPTIBRIUM.BBB log([brain]:[blood])>
-0.230286

> <OPTIBRIUM.logS @ pH7.4>
1.10716

$$$$
Compound 413_1_02
haSeeSAR  07122111353D 1   1.00000     0.00000     0
SeeSAR 11.0.2 hazemaj
 47 50  0  0  0  0            999 V2000
    5.5651   -2.0282   27.7317 Cl  0  0  0  0  0  0  0  0  0  0  0  0
    6.5491   -0.8380   26.8460 C   0  0  0  0  0  0  0  0  0  0  0  0
    7.8170   -1.1940   26.3982 C   0  0  0  0  0  0  0  0  0  0  0  0
    6.0396    0.4352   26.6123 C   0  0  0  0  0  0  0  0  0  0  0  0
    8.2930   -2.4354   26.6355 O   0  0  0  0  0  0  0  0  0  0  0  0
    8.5801   -0.2593   25.7067 C   0  0  0  0  0  0  0  0  0  0  0  0
    6.8204    1.3544   25.9192 C   0  0  0  0  0  0  0  0  0  0  0  0
    8.0354   -3.4830   25.7122 C   0  0  0  0  0  0  0  0  0  0  0  0
    8.0907    1.0194   25.4616 C   0  0  0  0  0  0  0  0  0  0  0  0
    9.9678   -0.6303   25.2078 C   0  0  0  0  0  0  0  0  0  0  0  0
    6.1776    2.9861   25.6145 Cl  0  0  0  0  0  0  0  0  0  0  0  0
   10.2133    0.0477   23.5476 S   0  0  0  0  0  0  0  0  0  0  0  0
   10.4280    1.4689   23.6364 O   0  0  0  0  0  0  0  0  0  0  0  0
   11.3612   -0.5742   22.9401 O   0  0  0  0  0  0  0  0  0  0  0  0
    8.8425   -0.2575   22.6058 N   0  0  0  0  0  0  0  0  0  0  0  0
    8.4438    0.4810   21.4934 C   0  0  0  0  0  0  0  0  0  0  0  0
    7.8638   -1.3239   22.8658 C   0  0  0  0  0  0  0  0  0  0  0  0
    9.0271    1.4803   21.0816 O   0  0  0  0  0  0  0  0  0  0  0  0
    7.2977   -0.0723   20.9295 N   0  0  0  0  0  0  0  0  0  0  0  0
    6.9456   -1.2927   21.6598 C   0  0  0  0  0  0  0  0  0  0  0  0
    6.5901    0.4404   19.8338 C   0  0  0  0  0  0  0  0  0  0  0  0
    7.1004    0.2346   18.5577 C   0  0  0  0  0  0  0  0  0  0  0  0
    5.3979    1.1464   19.9744 C   0  0  0  0  0  0  0  0  0  0  0  0
    8.2390   -0.4409   18.4413 F   0  0  0  0  0  0  0  0  0  0  0  0
    6.4533    0.7082   17.4820 N   0  0  0  0  0  0  0  0  0  0  0  0
    4.7402    1.6312   18.8474 C   0  0  0  0  0  0  0  0  0  0  0  0
    4.8338    1.3858   21.2250 C   0  0  0  0  0  0  0  0  0  0  0  0
    5.3044    1.3904   17.5988 C   0  0  0  0  0  0  0  0  0  0  0  0
    3.5480    2.3387   18.9614 C   0  0  0  0  0  0  0  0  0  0  0  0
    3.6436    2.0902   21.3677 C   0  0  0  0  0  0  0  0  0  0  0  0
    3.0083    2.5626   20.2241 C   0  0  0  0  0  0  0  0  0  0  0  0
    5.1275    0.6853   26.9371 H   0  0  0  0  0  0  0  0  0  0  0  0
    8.4573   -4.3281   26.0407 H   0  0  0  0  0  0  0  0  0  0  0  0
    7.0481   -3.6155   25.6252 H   0  0  0  0  0  0  0  0  0  0  0  0
    8.4195   -3.2435   24.8205 H   0  0  0  0  0  0  0  0  0  0  0  0
    8.6436    1.6878   24.9641 H   0  0  0  0  0  0  0  0  0  0  0  0
   10.0561   -1.6258   25.1778 H   0  0  0  0  0  0  0  0  0  0  0  0
   10.6565   -0.2531   25.8270 H   0  0  0  0  0  0  0  0  0  0  0  0
    7.3525   -1.1383   23.7049 H   0  0  0  0  0  0  0  0  0  0  0  0
    8.3186   -2.2112   22.9417 H   0  0  0  0  0  0  0  0  0  0  0  0
    5.9891   -1.2624   21.9498 H   0  0  0  0  0  0  0  0  0  0  0  0
    7.0949   -2.0983   21.0864 H   0  0  0  0  0  0  0  0  0  0  0  0
    5.2970    1.0420   22.0419 H   0  0  0  0  0  0  0  0  0  0  0  0
    4.8471    1.7306   16.7771 H   0  0  0  0  0  0  0  0  0  0  0  0
    3.0840    2.6826   18.1451 H   0  0  0  0  0  0  0  0  0  0  0  0
    3.2525    2.2539   22.2734 H   0  0  0  0  0  0  0  0  0  0  0  0
    2.1513    3.0704   20.3106 H   0  0  0  0  0  0  0  0  0  0  0  0
  1  2  1  0  0  0  0
  2  3  2  0  0  0  0
  2  4  1  0  0  0  0
  3  5  1  0  0  0  0
  3  6  1  0  0  0  0
  4  7  2  0  0  0  0
  5  8  1  0  0  0  0
  6  9  2  0  0  0  0
  6 10  1  0  0  0  0
  7 11  1  0  0  0  0
 10 12  1  0  0  0  0
 12 13  2  0  0  0  0
 12 14  2  0  0  0  0
 12 15  1  0  0  0  0
 15 16  1  0  0  0  0
 15 17  1  0  0  0  0
 16 18  2  0  0  0  0
 16 19  1  0  0  0  0
 17 20  1  0  0  0  0
 19 21  1  0  0  0  0
 21 22  2  0  0  0  0
 21 23  1  0  0  0  0
 22 24  1  0  0  0  0
 22 25  1  0  0  0  0
 23 26  1  0  0  0  0
 23 27  2  0  0  0  0
 25 28  2  0  0  0  0
 26 29  2  0  0  0  0
 27 30  1  0  0  0  0
 29 31  1  0  0  0  0
  7  9  1  0  0  0  0
 19 20  1  0  0  0  0
 26 28  1  0  0  0  0
 30 31  2  0  0  0  0
  4 32  1  0  0  0  0
  8 33  1  0  0  0  0
  8 34  1  0  0  0  0
  8 35  1  0  0  0  0
  9 36  1  0  0  0  0
 10 37  1  0  0  0  0
 10 38  1  0  0  0  0
 17 39  1  0  0  0  0
 17 40  1  0  0  0  0
 20 41  1  0  0  0  0
 20 42  1  0  0  0  0
 27 43  1  0  0  0  0
 28 44  1  0  0  0  0
 29 45  1  0  0  0  0
 30 46  1  0  0  0  0
 31 47  1  0  0  0  0
M  END
> <BIOSOLVEIT.HYDE_ESTIMATED_AFFINITY_LOWER_BOUNDARY [nM]>
110576.195373

> <BIOSOLVEIT.HYDE_ESTIMATED_AFFINITY_UPPER_BOUNDARY [nM]>
10986398.788560

> <BIOSOLVEIT.HYDE_LIGAND_EFFICIENCY range: ++, +, 0, -, -->
--

> <BIOSOLVEIT.HYDE_LIGAND_LIPOPHILIC_EFFICIENCY range: ++, +, 0, -, -->
--

> <BIOSOLVEIT.INTER_CLASH range: red, yellow, green>
green

> <BIOSOLVEIT.INTRA_CLASH range: red, yellow, green>
green

> <BIOSOLVEIT.LOGP>
5.1119

> <BIOSOLVEIT.MOLECULAR WEIGHT>
484.332

> <BIOSOLVEIT.MOLECULE_CHECKSUM>
LTE2Ljg4Mjg7MC41NDQ2MDc=

> <BIOSOLVEIT.TORSION_QUALITY range: red, yellow, green, not rotatable>
yellow

> <BIOSOLVEIT.TPSA>
79.81

> <BIOSOLVEIT.SEESAR_FAVORITE>
favorite

> <smc_score>
0.75

> <QED_score>
0.5

> <distance>
0.655

> <SimilarityPheSA_1>
0.638

> <Smiles>
COc1c(Cl)cc(Cl)cc1CS(=O)(=O)N1CCN(c2c(F)ncc3ccccc23)C1=O

> <Similarity_SkelSpheres>
0.701

> <Cluster No>
211.0

> <QueryID>
PET-UNK-c9c1e0d8-3

> <SimilarityPheSA>
0.6376

> <Postera series>
3-aminopyridine-like

> <PDB_code>
Mpro-x12587

> <Approach>
DGM_focussed_RL

> <ID>
20210618_412

> <SimilarityPheSA_2>
0.729

> <OPTIBRIUM.logD>
3.2737

> <OPTIBRIUM.BBB category>
-

> <OPTIBRIUM.logP>
3.2737

> <OPTIBRIUM.P-gp category>
yes

> <OPTIBRIUM.logS>
-0.435268

> <OPTIBRIUM.HIA category>
+

> <OPTIBRIUM.PPB90 category>
high

> <OPTIBRIUM.2D6 affinity category>
medium

> <OPTIBRIUM.hERG pIC50>
5.81388

> <OPTIBRIUM.2C9 pKi>
5.97686

> <OPTIBRIUM.BBB log([brain]:[blood])>
-0.733853

> <OPTIBRIUM.logS @ pH7.4>
-0.435268

$$$$
Compound 459_1_01
haSeeSAR  07122111353D 1   1.00000     0.00000     0
SeeSAR 11.0.2 hazemaj
 41 43  0  0  0  0            999 V2000
    8.9029   -2.7546   27.9990 Cl  0  0  0  0  0  0  0  0  0  0  0  0
    8.6670   -1.2129   27.1408 C   0  0  0  0  0  0  0  0  0  0  0  0
    9.0973   -1.0886   25.8239 C   0  0  0  0  0  0  0  0  0  0  0  0
    8.0558   -0.1493   27.7967 C   0  0  0  0  0  0  0  0  0  0  0  0
    9.6885   -2.1334   25.2053 O   0  0  0  0  0  0  0  0  0  0  0  0
    8.9096    0.1186   25.1593 C   0  0  0  0  0  0  0  0  0  0  0  0
    7.8788    1.0492   27.1131 C   0  0  0  0  0  0  0  0  0  0  0  0
    8.8937   -3.1512   24.6147 C   0  0  0  0  0  0  0  0  0  0  0  0
    8.3007    1.1953   25.7956 C   0  0  0  0  0  0  0  0  0  0  0  0
    9.3717    0.2734   23.7190 C   0  0  0  0  0  0  0  0  0  0  0  0
    7.0973    2.4162   27.9432 Cl  0  0  0  0  0  0  0  0  0  0  0  0
    8.2306    0.0797   22.8152 N   0  0  0  0  0  0  0  0  0  0  0  0
    8.0701    0.6725   21.5649 C   0  0  0  0  0  0  0  0  0  0  0  0
    7.0598   -0.7525   23.1308 C   0  0  0  0  0  0  0  0  0  0  0  0
    8.8412    1.4850   21.0632 O   0  0  0  0  0  0  0  0  0  0  0  0
    6.9043    0.1981   20.9741 N   0  0  0  0  0  0  0  0  0  0  0  0
    6.2948   -0.8289   21.8210 C   0  0  0  0  0  0  0  0  0  0  0  0
    6.3976    0.6186   19.7383 C   0  0  0  0  0  0  0  0  0  0  0  0
    5.1656    1.2593   19.6592 C   0  0  0  0  0  0  0  0  0  0  0  0
    7.1090    0.4073   18.5618 C   0  0  0  0  0  0  0  0  0  0  0  0
    4.4627    1.4709   20.7932 O   0  0  0  0  0  0  0  0  0  0  0  0
    4.7069    1.6504   18.4603 N   0  0  0  0  0  0  0  0  0  0  0  0
    6.5973    0.8216   17.3936 N   0  0  0  0  0  0  0  0  0  0  0  0
    3.2006    2.1192   20.7356 C   0  0  0  0  0  0  0  0  0  0  0  0
    5.4075    1.4381   17.3359 C   0  0  0  0  0  0  0  0  0  0  0  0
    7.7489   -0.2446   28.7438 H   0  0  0  0  0  0  0  0  0  0  0  0
    9.4883   -3.8422   24.2038 H   0  0  0  0  0  0  0  0  0  0  0  0
    8.3226   -3.5775   25.3164 H   0  0  0  0  0  0  0  0  0  0  0  0
    8.3102   -2.7507   23.9083 H   0  0  0  0  0  0  0  0  0  0  0  0
    8.1682    2.0612   25.3132 H   0  0  0  0  0  0  0  0  0  0  0  0
   10.0747   -0.4093   23.5193 H   0  0  0  0  0  0  0  0  0  0  0  0
    9.7498    1.1897   23.5868 H   0  0  0  0  0  0  0  0  0  0  0  0
    6.5025   -0.3254   23.8429 H   0  0  0  0  0  0  0  0  0  0  0  0
    7.3425   -1.6637   23.4303 H   0  0  0  0  0  0  0  0  0  0  0  0
    5.3247   -0.6352   21.9675 H   0  0  0  0  0  0  0  0  0  0  0  0
    6.3951   -1.7333   21.4062 H   0  0  0  0  0  0  0  0  0  0  0  0
    7.9974   -0.0511   18.5871 H   0  0  0  0  0  0  0  0  0  0  0  0
    2.8216    2.1934   21.6580 H   0  0  0  0  0  0  0  0  0  0  0  0
    3.3130    3.0337   20.3470 H   0  0  0  0  0  0  0  0  0  0  0  0
    2.5784    1.5871   20.1615 H   0  0  0  0  0  0  0  0  0  0  0  0
    5.0426    1.7394   16.4549 H   0  0  0  0  0  0  0  0  0  0  0  0
  1  2  1  0  0  0  0
  2  3  2  0  0  0  0
  2  4  1  0  0  0  0
  3  5  1  0  0  0  0
  3  6  1  0  0  0  0
  4  7  2  0  0  0  0
  5  8  1  0  0  0  0
  6  9  2  0  0  0  0
  6 10  1  0  0  0  0
  7 11  1  0  0  0  0
 10 12  1  0  0  0  0
 12 13  1  0  0  0  0
 12 14  1  0  0  0  0
 13 15  2  0  0  0  0
 13 16  1  0  0  0  0
 14 17  1  0  0  0  0
 16 18  1  0  0  0  0
 18 19  2  0  0  0  0
 18 20  1  0  0  0  0
 19 21  1  0  0  0  0
 19 22  1  0  0  0  0
 20 23  2  0  0  0  0
 21 24  1  0  0  0  0
 22 25  2  0  0  0  0
  7  9  1  0  0  0  0
 16 17  1  0  0  0  0
 23 25  1  0  0  0  0
  4 26  1  0  0  0  0
  8 27  1  0  0  0  0
  8 28  1  0  0  0  0
  8 29  1  0  0  0  0
  9 30  1  0  0  0  0
 10 31  1  0  0  0  0
 10 32  1  0  0  0  0
 14 33  1  0  0  0  0
 14 34  1  0  0  0  0
 17 35  1  0  0  0  0
 17 36  1  0  0  0  0
 20 37  1  0  0  0  0
 24 38  1  0  0  0  0
 24 39  1  0  0  0  0
 24 40  1  0  0  0  0
 25 41  1  0  0  0  0
M  END
> <BIOSOLVEIT.HYDE_ESTIMATED_AFFINITY_LOWER_BOUNDARY [nM]>
112333.580572

> <BIOSOLVEIT.HYDE_ESTIMATED_AFFINITY_UPPER_BOUNDARY [nM]>
11161005.398501

> <BIOSOLVEIT.HYDE_LIGAND_EFFICIENCY range: ++, +, 0, -, -->
--

> <BIOSOLVEIT.HYDE_LIGAND_LIPOPHILIC_EFFICIENCY range: ++, +, 0, -, -->
--

> <BIOSOLVEIT.INTER_CLASH range: red, yellow, green>
green

> <BIOSOLVEIT.INTRA_CLASH range: red, yellow, green>
green

> <BIOSOLVEIT.LOGP>
3.2428

> <BIOSOLVEIT.MOLECULAR WEIGHT>
383.233

> <BIOSOLVEIT.MOLECULE_CHECKSUM>
LTE2Ljg0Mzc7MC42NzM3NDk=

> <BIOSOLVEIT.TORSION_QUALITY range: red, yellow, green, not rotatable>
yellow

> <BIOSOLVEIT.TPSA>
67.79

> <BIOSOLVEIT.SEESAR_FAVORITE>
favorite

> <smc_score>
0.688

> <QED_score>
0.793

> <distance>
0.684

> <SimilarityPheSA_1>
0.657

> <Smiles>
COc1ncncc1N1CCN(Cc2cc(Cl)cc(Cl)c2OC)C1=O

> <Similarity_SkelSpheres>
0.676

> <Cluster No>
241.0

> <QueryID>
MAT-POS-b3e365b9-1, VLA-UCB-1dbca3b4-15

> <SimilarityPheSA>
0.6569

> <Postera series>
3-aminopyridine-like

> <PDB_code>
Mpro-x11612, Mpro-x11498

> <Approach>
DGM_focussed_RL

> <ID>
20210618_458

> <SimilarityPheSA_2>
0.762

> <OPTIBRIUM.logD>
3.60905

> <OPTIBRIUM.BBB category>
-

> <OPTIBRIUM.logP>
3.60905

> <OPTIBRIUM.P-gp category>
no

> <OPTIBRIUM.logS>
1.08394

> <OPTIBRIUM.HIA category>
+

> <OPTIBRIUM.PPB90 category>
high

> <OPTIBRIUM.2D6 affinity category>
medium

> <OPTIBRIUM.hERG pIC50>
5.16854

> <OPTIBRIUM.2C9 pKi>
5.55004

> <OPTIBRIUM.BBB log([brain]:[blood])>
0.140329

> <OPTIBRIUM.logS @ pH7.4>
1.08394

$$$$
Compound 330_1_10
haSeeSAR  07122111353D 1   1.00000     0.00000     0
SeeSAR 11.0.2 hazemaj
 47 50  0  0  0  0            999 V2000
    8.7323   -4.5975   28.5723 Cl  0  0  0  0  0  0  0  0  0  0  0  0
    7.5408   -3.2759   28.6334 C   0  0  0  0  0  0  0  0  0  0  0  0
    7.1337   -2.7628   29.8602 C   0  0  0  0  0  0  0  0  0  0  0  0
    7.0265   -2.7647   27.4475 C   0  0  0  0  0  0  0  0  0  0  0  0
    7.8069   -3.4357   31.3641 Cl  0  0  0  0  0  0  0  0  0  0  0  0
    6.2044   -1.7289   29.9195 C   0  0  0  0  0  0  0  0  0  0  0  0
    6.0978   -1.7319   27.5127 C   0  0  0  0  0  0  0  0  0  0  0  0
    5.6857   -1.2144   28.7360 C   0  0  0  0  0  0  0  0  0  0  0  0
    5.5250   -1.1602   26.2257 C   0  0  0  0  0  0  0  0  0  0  0  0
    6.5781   -0.4422   25.4981 N   0  0  0  0  0  0  0  0  0  0  0  0
    7.2366   -0.9316   24.3748 C   0  0  0  0  0  0  0  0  0  0  0  0
    7.1294    0.8796   25.8407 C   0  0  0  0  0  0  0  0  0  0  0  0
    7.0281   -2.0399   23.9030 O   0  0  0  0  0  0  0  0  0  0  0  0
    8.1448    0.0135   23.8784 N   0  0  0  0  0  0  0  0  0  0  0  0
    8.0282    1.2404   24.6753 C   0  0  0  0  0  0  0  0  0  0  0  0
    9.0412   -0.1908   22.7271 C   0  0  0  0  0  0  0  0  0  0  0  0
    8.3815    0.3498   21.4690 C   0  0  0  0  0  0  0  0  0  0  0  0
    8.8759    1.3103   20.8788 O   0  0  0  0  0  0  0  0  0  0  0  0
    7.2758   -0.2121   21.0082 N   0  0  0  0  0  0  0  0  0  0  0  0
    6.6670    0.2867   19.8474 C   0  0  0  0  0  0  0  0  0  0  0  0
    5.4969    1.0385   19.9523 C   0  0  0  0  0  0  0  0  0  0  0  0
    7.2050    0.0418   18.5873 C   0  0  0  0  0  0  0  0  0  0  0  0
    4.8735    1.5573   18.8326 C   0  0  0  0  0  0  0  0  0  0  0  0
    4.6824    1.4342   21.1639 C   0  0  0  0  0  0  0  0  0  0  0  0
    6.5877    0.5349   17.5017 N   0  0  0  0  0  0  0  0  0  0  0  0
    3.7400    2.2673   19.2385 N   0  0  0  0  0  0  0  0  0  0  0  0
    5.4664    1.2692   17.6043 C   0  0  0  0  0  0  0  0  0  0  0  0
    3.8732    2.6016   20.6610 C   0  0  0  0  0  0  0  0  0  0  0  0
    7.3187   -3.1324   26.5647 H   0  0  0  0  0  0  0  0  0  0  0  0
    5.9130   -1.3604   30.8023 H   0  0  0  0  0  0  0  0  0  0  0  0
    5.0163   -0.4721   28.7646 H   0  0  0  0  0  0  0  0  0  0  0  0
    4.7807   -0.5289   26.4437 H   0  0  0  0  0  0  0  0  0  0  0  0
    5.1751   -1.9046   25.6570 H   0  0  0  0  0  0  0  0  0  0  0  0
    7.6557    0.8321   26.6895 H   0  0  0  0  0  0  0  0  0  0  0  0
    6.3957    1.5516   25.9405 H   0  0  0  0  0  0  0  0  0  0  0  0
    8.9269    1.5312   25.0035 H   0  0  0  0  0  0  0  0  0  0  0  0
    7.6188    1.9731   24.1316 H   0  0  0  0  0  0  0  0  0  0  0  0
    9.2226   -1.1678   22.6150 H   0  0  0  0  0  0  0  0  0  0  0  0
    9.9026    0.2920   22.8856 H   0  0  0  0  0  0  0  0  0  0  0  0
    6.8742   -0.9924   21.4877 H   0  0  0  0  0  0  0  0  0  0  0  0
    8.0427   -0.4958   18.4914 H   0  0  0  0  0  0  0  0  0  0  0  0
    5.2750    1.7075   21.9218 H   0  0  0  0  0  0  0  0  0  0  0  0
    4.0888    0.6853   21.4583 H   0  0  0  0  0  0  0  0  0  0  0  0
    2.9647    2.5082   18.6547 H   0  0  0  0  0  0  0  0  0  0  0  0
    5.0424    1.6212   16.7699 H   0  0  0  0  0  0  0  0  0  0  0  0
    4.3586    3.4662   20.7899 H   0  0  0  0  0  0  0  0  0  0  0  0
    2.9813    2.6497   21.1107 H   0  0  0  0  0  0  0  0  0  0  0  0
  1  2  1  0  0  0  0
  2  3  2  0  0  0  0
  2  4  1  0  0  0  0
  3  5  1  0  0  0  0
  3  6  1  0  0  0  0
  4  7  2  0  0  0  0
  6  8  2  0  0  0  0
  7  9  1  0  0  0  0
  9 10  1  0  0  0  0
 10 11  1  0  0  0  0
 10 12  1  0  0  0  0
 11 13  2  0  0  0  0
 11 14  1  0  0  0  0
 12 15  1  0  0  0  0
 14 16  1  0  0  0  0
 16 17  1  0  0  0  0
 17 18  2  0  0  0  0
 17 19  1  0  0  0  0
 19 20  1  0  0  0  0
 20 21  2  0  0  0  0
 20 22  1  0  0  0  0
 21 23  1  0  0  0  0
 21 24  1  0  0  0  0
 22 25  2  0  0  0  0
 23 26  1  0  0  0  0
 23 27  2  0  0  0  0
 24 28  1  0  0  0  0
  7  8  1  0  0  0  0
 14 15  1  0  0  0  0
 25 27  1  0  0  0  0
 26 28  1  0  0  0  0
  4 29  1  0  0  0  0
  6 30  1  0  0  0  0
  8 31  1  0  0  0  0
  9 32  1  0  0  0  0
  9 33  1  0  0  0  0
 12 34  1  0  0  0  0
 12 35  1  0  0  0  0
 15 36  1  0  0  0  0
 15 37  1  0  0  0  0
 16 38  1  0  0  0  0
 16 39  1  0  0  0  0
 19 40  1  0  0  0  0
 22 41  1  0  0  0  0
 24 42  1  0  0  0  0
 24 43  1  0  0  0  0
 26 44  1  0  0  0  0
 27 45  1  0  0  0  0
 28 46  1  0  0  0  0
 28 47  1  0  0  0  0
M  END
> <BIOSOLVEIT.HYDE_ESTIMATED_AFFINITY_LOWER_BOUNDARY [nM]>
112476.056203

> <BIOSOLVEIT.HYDE_ESTIMATED_AFFINITY_UPPER_BOUNDARY [nM]>
11175161.194807

> <BIOSOLVEIT.HYDE_LIGAND_EFFICIENCY range: ++, +, 0, -, -->
--

> <BIOSOLVEIT.HYDE_LIGAND_LIPOPHILIC_EFFICIENCY range: ++, +, 0, -, -->
--

> <BIOSOLVEIT.INTER_CLASH range: red, yellow, green>
green

> <BIOSOLVEIT.INTRA_CLASH range: red, yellow, green>
green

> <BIOSOLVEIT.LOGP>
3.2327

> <BIOSOLVEIT.MOLECULAR WEIGHT>
420.298

> <BIOSOLVEIT.MOLECULE_CHECKSUM>
LTE2Ljg0MDY7MC42MDE0NDk=

> <BIOSOLVEIT.TORSION_QUALITY range: red, yellow, green, not rotatable>
green

> <BIOSOLVEIT.TPSA>
77.57

> <BIOSOLVEIT.SEESAR_FAVORITE>
favorite

> <smc_score>
0.875

> <QED_score>
0.779

> <distance>
0.522

> <SimilarityPheSA_1>
0.664

> <Smiles>
O=C(CN1CCN(Cc2ccc(Cl)c(Cl)c2)C1=O)Nc1cncc2c1CCN2

> <Similarity_SkelSpheres>
0.672

> <Cluster No>
165.0

> <QueryID>
PET-UNK-c9c1e0d8-3

> <SimilarityPheSA>
0.6641

> <Postera series>
3-aminopyridine-like

> <PDB_code>
Mpro-x12587

> <Approach>
DGM_focussed_RL

> <ID>
20210618_329

> <SimilarityPheSA_2>
0.672

> <OPTIBRIUM.logD>
2.24858

> <OPTIBRIUM.BBB category>
-

> <OPTIBRIUM.logP>
2.16387

> <OPTIBRIUM.P-gp category>
yes

> <OPTIBRIUM.logS>
2.07129

> <OPTIBRIUM.HIA category>
+

> <OPTIBRIUM.PPB90 category>
high

> <OPTIBRIUM.2D6 affinity category>
medium

> <OPTIBRIUM.hERG pIC50>
4.78816

> <OPTIBRIUM.2C9 pKi>
5.63938

> <OPTIBRIUM.BBB log([brain]:[blood])>
-0.305901

> <OPTIBRIUM.logS @ pH7.4>
1.5639

$$$$
Compound 3_1_03
haSeeSAR  07122111353D 1   1.00000     0.00000     0
SeeSAR 11.0.2 hazemaj
 44 47  0  0  0  0            999 V2000
    5.6538   -1.2039   25.8415 Cl  0  0  0  0  0  0  0  0  0  0  0  0
    6.3322    0.4323   25.6789 C   0  0  0  0  0  0  0  0  0  0  0  0
    6.5212    1.2042   26.8206 C   0  0  0  0  0  0  0  0  0  0  0  0
    6.6672    0.9426   24.4331 C   0  0  0  0  0  0  0  0  0  0  0  0
    6.1032    0.5654   28.4280 Cl  0  0  0  0  0  0  0  0  0  0  0  0
    7.0370    2.4918   26.7341 C   0  0  0  0  0  0  0  0  0  0  0  0
    7.1875    2.2245   24.3654 C   0  0  0  0  0  0  0  0  0  0  0  0
    7.3611    3.0104   25.4833 C   0  0  0  0  0  0  0  0  0  0  0  0
    7.6357    3.0071   23.1462 C   0  0  2  0  0  0  0  0  0  0  0  0
    7.8862    4.3621   25.0377 C   0  0  0  0  0  0  0  0  0  0  0  0
    8.3565    2.1355   22.1292 C   0  0  0  0  0  0  0  0  0  0  0  0
    8.5513    4.0748   23.7090 C   0  0  0  0  0  0  0  0  0  0  0  0
    8.3126    2.4212   20.9326 O   0  0  0  0  0  0  0  0  0  0  0  0
    9.0306    1.0703   22.5307 N   0  0  0  0  0  0  0  0  0  0  0  0
    9.7273    0.2279   21.5478 C   0  0  0  0  0  0  0  0  0  0  0  0
    8.8052   -0.8935   21.0976 C   0  0  0  0  0  0  0  0  0  0  0  0
    7.4556   -0.4610   21.1867 O   0  0  0  0  0  0  0  0  0  0  0  0
    6.8407    0.0612   20.1029 C   0  0  0  0  0  0  0  0  0  0  0  0
    5.6461    0.7713   20.1996 C   0  0  0  0  0  0  0  0  0  0  0  0
    7.4253   -0.1199   18.8539 C   0  0  0  0  0  0  0  0  0  0  0  0
    5.0311    0.9808   21.3756 N   0  0  0  0  0  0  0  0  0  0  0  0
    5.0861    1.2724   19.0285 C   0  0  0  0  0  0  0  0  0  0  0  0
    6.8536    0.3786   17.7476 N   0  0  0  0  0  0  0  0  0  0  0  0
    3.8819    1.6640   21.4765 C   0  0  0  0  0  0  0  0  0  0  0  0
    5.7036    1.0683   17.7984 C   0  0  0  0  0  0  0  0  0  0  0  0
    3.8935    1.9847   19.1040 C   0  0  0  0  0  0  0  0  0  0  0  0
    3.2806    2.1861   20.3361 C   0  0  0  0  0  0  0  0  0  0  0  0
    6.5363    0.3984   23.6045 H   0  0  0  0  0  0  0  0  0  0  0  0
    7.1737    3.0390   27.5598 H   0  0  0  0  0  0  0  0  0  0  0  0
    6.8431    3.4387   22.7154 H   0  0  0  0  0  0  0  0  0  0  0  0
    8.5475    4.7216   25.6961 H   0  0  0  0  0  0  0  0  0  0  0  0
    7.1374    5.0156   24.9267 H   0  0  0  0  0  0  0  0  0  0  0  0
    8.5698    4.8865   23.1253 H   0  0  0  0  0  0  0  0  0  0  0  0
    9.4825    3.7315   23.8319 H   0  0  0  0  0  0  0  0  0  0  0  0
    9.0664    0.8381   23.5027 H   0  0  0  0  0  0  0  0  0  0  0  0
   10.5477   -0.1626   21.9653 H   0  0  0  0  0  0  0  0  0  0  0  0
    9.9873    0.7830   20.7576 H   0  0  0  0  0  0  0  0  0  0  0  0
    8.9389   -1.6914   21.6854 H   0  0  0  0  0  0  0  0  0  0  0  0
    9.0151   -1.1380   20.1510 H   0  0  0  0  0  0  0  0  0  0  0  0
    8.2830   -0.6285   18.7797 H   0  0  0  0  0  0  0  0  0  0  0  0
    3.4570    1.7981   22.3717 H   0  0  0  0  0  0  0  0  0  0  0  0
    5.2949    1.4315   16.9612 H   0  0  0  0  0  0  0  0  0  0  0  0
    3.4770    2.3520   18.2724 H   0  0  0  0  0  0  0  0  0  0  0  0
    2.4234    2.6969   20.4009 H   0  0  0  0  0  0  0  0  0  0  0  0
  1  2  1  0  0  0  0
  2  3  2  0  0  0  0
  2  4  1  0  0  0  0
  3  5  1  0  0  0  0
  3  6  1  0  0  0  0
  4  7  2  0  0  0  0
  6  8  2  0  0  0  0
  7  9  1  0  0  0  0
  8 10  1  0  0  0  0
  9 11  1  0  0  0  0
  9 12  1  0  0  0  0
 11 13  2  0  0  0  0
 11 14  1  0  0  0  0
 14 15  1  0  0  0  0
 15 16  1  0  0  0  0
 16 17  1  0  0  0  0
 17 18  1  0  0  0  0
 18 19  1  0  0  0  0
 18 20  2  0  0  0  0
 19 21  2  0  0  0  0
 19 22  1  0  0  0  0
 20 23  1  0  0  0  0
 21 24  1  0  0  0  0
 22 25  1  0  0  0  0
 22 26  2  0  0  0  0
 24 27  2  0  0  0  0
  7  8  1  0  0  0  0
 10 12  1  0  0  0  0
 23 25  2  0  0  0  0
 26 27  1  0  0  0  0
  4 28  1  0  0  0  0
  6 29  1  0  0  0  0
  9 30  1  0  0  0  0
 10 31  1  0  0  0  0
 10 32  1  0  0  0  0
 12 33  1  0  0  0  0
 12 34  1  0  0  0  0
 14 35  1  0  0  0  0
 15 36  1  0  0  0  0
 15 37  1  0  0  0  0
 16 38  1  0  0  0  0
 16 39  1  0  0  0  0
 20 40  1  0  0  0  0
 24 41  1  0  0  0  0
 25 42  1  0  0  0  0
 26 43  1  0  0  0  0
 27 44  1  0  0  0  0
M  END
> <BIOSOLVEIT.HYDE_ESTIMATED_AFFINITY_LOWER_BOUNDARY [nM]>
114579.846710

> <BIOSOLVEIT.HYDE_ESTIMATED_AFFINITY_UPPER_BOUNDARY [nM]>
11384185.220334

> <BIOSOLVEIT.HYDE_LIGAND_EFFICIENCY range: ++, +, 0, -, -->
--

> <BIOSOLVEIT.HYDE_LIGAND_LIPOPHILIC_EFFICIENCY range: ++, +, 0, -, -->
--

> <BIOSOLVEIT.INTER_CLASH range: red, yellow, green>
green

> <BIOSOLVEIT.INTRA_CLASH range: red, yellow, green>
green

> <BIOSOLVEIT.LOGP>
4.1616

> <BIOSOLVEIT.MOLECULAR WEIGHT>
402.279

> <BIOSOLVEIT.MOLECULE_CHECKSUM>
LTE2Ljc5NDY7MC42MjIwMjQ=

> <BIOSOLVEIT.TORSION_QUALITY range: red, yellow, green, not rotatable>
yellow

> <BIOSOLVEIT.TPSA>
64.11

> <BIOSOLVEIT.SEESAR_FAVORITE>
favorite

> <smc_score>
0.688

> <QED_score>
0.651

> <distance>
0.595

> <SimilarityPheSA_1>
0.648

> <Smiles>
O=C(NCCOc1cncc2cccnc12)C1CCc2cc(Cl)c(Cl)cc21

> <Similarity_SkelSpheres>
0.757

> <Cluster No>
1.0

> <QueryID>
JAN-GHE-5a013bed-2

> <SimilarityPheSA>
0.6482

> <Postera series>
3-aminopyridine-like

> <PDB_code>
Mpro-x10466

> <Approach>
DGM_focussed_RL

> <ID>
20210618_2

> <SimilarityPheSA_2>
0.7

> <OPTIBRIUM.logD>
3.0302

> <OPTIBRIUM.BBB category>
-

> <OPTIBRIUM.logP>
3.0302

> <OPTIBRIUM.P-gp category>
yes

> <OPTIBRIUM.logS>
0.383775

> <OPTIBRIUM.HIA category>
+

> <OPTIBRIUM.PPB90 category>
high

> <OPTIBRIUM.2D6 affinity category>
high

> <OPTIBRIUM.hERG pIC50>
4.70647

> <OPTIBRIUM.2C9 pKi>
5.54883

> <OPTIBRIUM.BBB log([brain]:[blood])>
-0.532611

> <OPTIBRIUM.logS @ pH7.4>
0.383775

$$$$
Compound 611_1_04
haSeeSAR  07122111353D 1   1.00000     0.00000     0
SeeSAR 11.0.2 hazemaj
 42 45  0  0  0  0            999 V2000
   12.8643    2.3663   23.6558 Cl  0  0  0  0  0  0  0  0  0  0  0  0
   12.0284    0.9278   23.0234 C   0  0  0  0  0  0  0  0  0  0  0  0
   12.7613   -0.1104   22.4588 C   0  0  0  0  0  0  0  0  0  0  0  0
   10.6418    0.8540   23.1006 C   0  0  0  0  0  0  0  0  0  0  0  0
   14.0867   -0.0207   22.3956 F   0  0  0  0  0  0  0  0  0  0  0  0
   12.1214   -1.2402   21.9608 C   0  0  0  0  0  0  0  0  0  0  0  0
   10.0005   -0.2750   22.6032 C   0  0  0  0  0  0  0  0  0  0  0  0
   10.7347   -1.3117   22.0387 C   0  0  0  0  0  0  0  0  0  0  0  0
    8.4863   -0.3725   22.6793 C   0  0  0  0  0  0  0  0  0  0  0  0
   10.1118   -2.3863   21.5659 F   0  0  0  0  0  0  0  0  0  0  0  0
    7.8734    0.3017   21.4627 C   0  0  0  0  0  0  0  0  0  0  0  0
    8.4059    1.3007   20.9790 O   0  0  0  0  0  0  0  0  0  0  0  0
    6.7677   -0.1850   20.9235 N   0  0  0  0  0  0  0  0  0  0  0  0
    6.2031    0.4359   19.8029 C   0  0  0  0  0  0  0  0  0  0  0  0
    5.1163    1.2958   19.9193 C   0  0  0  0  0  0  0  0  0  0  0  0
    6.7249    0.2006   18.5358 C   0  0  0  0  0  0  0  0  0  0  0  0
    4.5864    1.8891   18.8026 C   0  0  0  0  0  0  0  0  0  0  0  0
    4.3459    1.7504   21.0134 C   0  0  0  0  0  0  0  0  0  0  0  0
    6.1909    0.7886   17.4550 N   0  0  0  0  0  0  0  0  0  0  0  0
    3.5422    2.6589   19.2192 N   0  0  0  0  0  0  0  0  0  0  0  0
    5.1429    1.6196   17.5562 C   0  0  0  0  0  0  0  0  0  0  0  0
    3.4329    2.5544   20.5219 N   0  0  0  0  0  0  0  0  0  0  0  0
    2.6743    3.4757   18.3574 C   0  0  0  0  0  0  0  0  0  0  0  0
    1.2226    3.2972   18.7837 C   0  0  1  0  0  0  0  0  0  0  0  0
    0.9951    2.1760   19.6252 O   0  0  0  0  0  0  0  0  0  0  0  0
    0.9095    4.1423   19.9922 C   0  0  0  0  0  0  0  0  0  0  0  0
    0.0925    2.9437   20.4028 C   0  0  0  0  0  0  0  0  0  0  0  0
   10.1148    1.6005   23.5069 H   0  0  0  0  0  0  0  0  0  0  0  0
   12.6482   -1.9867   21.5546 H   0  0  0  0  0  0  0  0  0  0  0  0
    8.1643    0.0821   23.5098 H   0  0  0  0  0  0  0  0  0  0  0  0
    8.2148   -1.3347   22.6993 H   0  0  0  0  0  0  0  0  0  0  0  0
    6.3350   -0.9965   21.3164 H   0  0  0  0  0  0  0  0  0  0  0  0
    7.5068   -0.4136   18.4290 H   0  0  0  0  0  0  0  0  0  0  0  0
    4.4720    1.5068   21.9750 H   0  0  0  0  0  0  0  0  0  0  0  0
    4.7616    2.0455   16.7357 H   0  0  0  0  0  0  0  0  0  0  0  0
    2.7806    3.1854   17.4064 H   0  0  0  0  0  0  0  0  0  0  0  0
    2.9308    4.4385   18.4426 H   0  0  0  0  0  0  0  0  0  0  0  0
    0.5629    3.3895   18.0378 H   0  0  0  0  0  0  0  0  0  0  0  0
    0.3894    4.9771   19.8113 H   0  0  0  0  0  0  0  0  0  0  0  0
    1.6881    4.3559   20.5821 H   0  0  0  0  0  0  0  0  0  0  0  0
    0.1036    2.7421   21.3822 H   0  0  0  0  0  0  0  0  0  0  0  0
   -0.8517    2.9446   20.0734 H   0  0  0  0  0  0  0  0  0  0  0  0
  1  2  1  0  0  0  0
  2  3  2  0  0  0  0
  2  4  1  0  0  0  0
  3  5  1  0  0  0  0
  3  6  1  0  0  0  0
  4  7  2  0  0  0  0
  6  8  2  0  0  0  0
  7  9  1  0  0  0  0
  8 10  1  0  0  0  0
  9 11  1  0  0  0  0
 11 12  2  0  0  0  0
 11 13  1  0  0  0  0
 13 14  1  0  0  0  0
 14 15  2  0  0  0  0
 14 16  1  0  0  0  0
 15 17  1  0  0  0  0
 15 18  1  0  0  0  0
 16 19  2  0  0  0  0
 17 20  1  0  0  0  0
 17 21  2  0  0  0  0
 18 22  2  0  0  0  0
 20 23  1  0  0  0  0
 23 24  1  0  0  0  0
 24 25  1  0  0  0  0
 24 26  1  0  0  0  0
 25 27  1  0  0  0  0
  7  8  1  0  0  0  0
 19 21  1  0  0  0  0
 20 22  1  0  0  0  0
 26 27  1  0  0  0  0
  4 28  1  0  0  0  0
  6 29  1  0  0  0  0
  9 30  1  0  0  0  0
  9 31  1  0  0  0  0
 13 32  1  0  0  0  0
 16 33  1  0  0  0  0
 18 34  1  0  0  0  0
 21 35  1  0  0  0  0
 23 36  1  0  0  0  0
 23 37  1  0  0  0  0
 24 38  1  0  0  0  0
 26 39  1  0  0  0  0
 26 40  1  0  0  0  0
 27 41  1  0  0  0  0
 27 42  1  0  0  0  0
M  END
> <BIOSOLVEIT.HYDE_ESTIMATED_AFFINITY_LOWER_BOUNDARY [nM]>
121501.634315

> <BIOSOLVEIT.HYDE_ESTIMATED_AFFINITY_UPPER_BOUNDARY [nM]>
12071905.743707

> <BIOSOLVEIT.HYDE_LIGAND_EFFICIENCY range: ++, +, 0, -, -->
--

> <BIOSOLVEIT.HYDE_LIGAND_LIPOPHILIC_EFFICIENCY range: ++, +, 0, -, -->
--

> <BIOSOLVEIT.INTER_CLASH range: red, yellow, green>
yellow

> <BIOSOLVEIT.INTRA_CLASH range: red, yellow, green>
yellow

> <BIOSOLVEIT.LOGP>
3.333

> <BIOSOLVEIT.MOLECULAR WEIGHT>
392.792

> <BIOSOLVEIT.MOLECULE_CHECKSUM>
LTE2LjY0OTI7MC42MTY2Mzk=

> <BIOSOLVEIT.TORSION_QUALITY range: red, yellow, green, not rotatable>
red

> <BIOSOLVEIT.TPSA>
69.04

> <BIOSOLVEIT.SEESAR_FAVORITE>
favorite

> <smc_score>
0.688

> <QED_score>
0.676

> <distance>
0.58

> <SimilarityPheSA_1>
0.645

> <Smiles>
O=C(Cc1cc(Cl)c(F)cc1F)Nc1cncc2c1cnn2CC1CCO1

> <Similarity_SkelSpheres>
0.631

> <Cluster No>
335.0

> <QueryID>
MAT-POS-f7918075-5

> <SimilarityPheSA>
0.6453

> <Postera series>
3-aminopyridine-like

> <PDB_code>
Mpro-x11499

> <Approach>
DGM_focussed_RL

> <ID>
20210618_610

> <SimilarityPheSA_2>
0.858

> <OPTIBRIUM.logD>
2.86301

> <OPTIBRIUM.BBB category>
-

> <OPTIBRIUM.logP>
2.86301

> <OPTIBRIUM.P-gp category>
no

> <OPTIBRIUM.logS>
0.404399

> <OPTIBRIUM.HIA category>
+

> <OPTIBRIUM.PPB90 category>
high

> <OPTIBRIUM.2D6 affinity category>
high

> <OPTIBRIUM.hERG pIC50>
5.66861

> <OPTIBRIUM.2C9 pKi>
5.39237

> <OPTIBRIUM.BBB log([brain]:[blood])>
-0.365511

> <OPTIBRIUM.logS @ pH7.4>
0.404399

$$$$
Compound 1478_1_003
haSeeSAR  07122111353D 1   1.00000     0.00000     0
SeeSAR 11.0.2 hazemaj
 50 53  0  0  0  0            999 V2000
    6.6051    2.8405   25.4023 Cl  0  0  0  0  0  0  0  0  0  0  0  0
    7.6730    1.4296   25.5989 C   0  0  0  0  0  0  0  0  0  0  0  0
    8.0965    1.0493   26.8679 C   0  0  0  0  0  0  0  0  0  0  0  0
    8.0749    0.7154   24.4761 C   0  0  0  0  0  0  0  0  0  0  0  0
    7.5683    1.9813   28.2892 Cl  0  0  0  0  0  0  0  0  0  0  0  0
    8.9297   -0.0526   27.0332 C   0  0  0  0  0  0  0  0  0  0  0  0
    8.9079   -0.3846   24.6471 C   0  0  0  0  0  0  0  0  0  0  0  0
    9.3357   -0.7701   25.9129 C   0  0  0  0  0  0  0  0  0  0  0  0
    9.3570   -1.1777   23.4303 C   0  0  0  0  0  0  0  0  0  0  0  0
    9.8282   -0.2530   22.3892 N   0  0  0  0  0  0  0  0  0  0  0  0
    8.9749    0.2390   21.5059 C   0  0  0  0  0  0  0  0  0  0  0  0
   11.2472    0.1250   22.3295 C   0  0  0  0  0  0  0  0  0  0  0  0
    9.2201    1.3047   20.9407 O   0  0  0  0  0  0  0  0  0  0  0  0
    7.6918   -0.5117   21.1891 C   0  0  0  0  0  0  0  0  0  0  0  0
   12.1306   -1.0613   22.0006 C   0  0  0  0  0  0  0  0  0  0  0  0
   11.7798    0.5046   23.6981 C   0  0  0  0  0  0  0  0  0  0  0  0
    6.9975    0.1474   20.0074 C   0  0  0  0  0  0  0  0  0  0  0  0
   13.5166   -0.6239   22.4335 C   0  0  0  0  0  0  0  0  0  0  0  0
   13.2867    0.3921   23.5326 C   0  0  0  0  0  0  0  0  0  0  0  0
    7.5865    0.0675   18.8279 N   0  0  0  0  0  0  0  0  0  0  0  0
    5.7564    0.8335   20.1385 C   0  0  0  0  0  0  0  0  0  0  0  0
    7.0615    0.6110   17.7429 N   0  0  0  0  0  0  0  0  0  0  0  0
    5.1830    1.4116   19.0108 C   0  0  0  0  0  0  0  0  0  0  0  0
    5.0899    0.9502   21.3554 C   0  0  0  0  0  0  0  0  0  0  0  0
    5.8719    1.2888   17.7724 C   0  0  0  0  0  0  0  0  0  0  0  0
    3.9694    2.0853   19.1261 C   0  0  0  0  0  0  0  0  0  0  0  0
    3.8791    1.6234   21.4641 C   0  0  0  0  0  0  0  0  0  0  0  0
    5.4473    1.7645   16.7299 O   0  0  0  0  0  0  0  0  0  0  0  0
    3.3018    2.2022   20.3396 C   0  0  0  0  0  0  0  0  0  0  0  0
    3.2730    1.7132   22.6431 F   0  0  0  0  0  0  0  0  0  0  0  0
    7.7707    0.9875   23.5632 H   0  0  0  0  0  0  0  0  0  0  0  0
    9.2329   -0.3254   27.9461 H   0  0  0  0  0  0  0  0  0  0  0  0
    9.9355   -1.5634   26.0178 H   0  0  0  0  0  0  0  0  0  0  0  0
    8.5885   -1.7121   23.0784 H   0  0  0  0  0  0  0  0  0  0  0  0
   10.1004   -1.7941   23.6899 H   0  0  0  0  0  0  0  0  0  0  0  0
   11.3901    0.8668   21.6744 H   0  0  0  0  0  0  0  0  0  0  0  0
    7.0874   -0.4898   21.9854 H   0  0  0  0  0  0  0  0  0  0  0  0
    7.9086   -1.4609   20.9612 H   0  0  0  0  0  0  0  0  0  0  0  0
   12.1105   -1.2574   21.0202 H   0  0  0  0  0  0  0  0  0  0  0  0
   11.8396   -1.8720   22.5087 H   0  0  0  0  0  0  0  0  0  0  0  0
   11.4486   -0.1272   24.3990 H   0  0  0  0  0  0  0  0  0  0  0  0
   11.5149    1.4383   23.9389 H   0  0  0  0  0  0  0  0  0  0  0  0
   14.0080   -0.2079   21.6684 H   0  0  0  0  0  0  0  0  0  0  0  0
   14.0381   -1.4037   22.7802 H   0  0  0  0  0  0  0  0  0  0  0  0
   13.7069    0.0815   24.3852 H   0  0  0  0  0  0  0  0  0  0  0  0
   13.6739    1.2769   23.2732 H   0  0  0  0  0  0  0  0  0  0  0  0
    7.5482    0.5243   16.8738 H   0  0  0  0  0  0  0  0  0  0  0  0
    5.4932    0.5387   22.1726 H   0  0  0  0  0  0  0  0  0  0  0  0
    3.5654    2.4981   18.3098 H   0  0  0  0  0  0  0  0  0  0  0  0
    2.4306    2.6891   20.4021 H   0  0  0  0  0  0  0  0  0  0  0  0
  1  2  1  0  0  0  0
  2  3  2  0  0  0  0
  2  4  1  0  0  0  0
  3  5  1  0  0  0  0
  3  6  1  0  0  0  0
  4  7  2  0  0  0  0
  6  8  2  0  0  0  0
  7  9  1  0  0  0  0
  9 10  1  0  0  0  0
 10 11  1  0  0  0  0
 10 12  1  0  0  0  0
 11 13  2  0  0  0  0
 11 14  1  0  0  0  0
 12 15  1  0  0  0  0
 12 16  1  0  0  0  0
 14 17  1  0  0  0  0
 15 18  1  0  0  0  0
 16 19  1  0  0  0  0
 17 20  2  0  0  0  0
 17 21  1  0  0  0  0
 20 22  1  0  0  0  0
 21 23  2  0  0  0  0
 21 24  1  0  0  0  0
 22 25  1  0  0  0  0
 23 26  1  0  0  0  0
 24 27  2  0  0  0  0
 25 28  2  0  0  0  0
 26 29  2  0  0  0  0
 27 30  1  0  0  0  0
  7  8  1  0  0  0  0
 18 19  1  0  0  0  0
 23 25  1  0  0  0  0
 27 29  1  0  0  0  0
  4 31  1  0  0  0  0
  6 32  1  0  0  0  0
  8 33  1  0  0  0  0
  9 34  1  0  0  0  0
  9 35  1  0  0  0  0
 12 36  1  0  0  0  0
 14 37  1  0  0  0  0
 14 38  1  0  0  0  0
 15 39  1  0  0  0  0
 15 40  1  0  0  0  0
 16 41  1  0  0  0  0
 16 42  1  0  0  0  0
 18 43  1  0  0  0  0
 18 44  1  0  0  0  0
 19 45  1  0  0  0  0
 19 46  1  0  0  0  0
 22 47  1  0  0  0  0
 24 48  1  0  0  0  0
 26 49  1  0  0  0  0
 29 50  1  0  0  0  0
M  END
> <BIOSOLVEIT.HYDE_ESTIMATED_AFFINITY_LOWER_BOUNDARY [nM]>
125525.428423

> <BIOSOLVEIT.HYDE_ESTIMATED_AFFINITY_UPPER_BOUNDARY [nM]>
12471693.478863

> <BIOSOLVEIT.HYDE_LIGAND_EFFICIENCY range: ++, +, 0, -, -->
--

> <BIOSOLVEIT.HYDE_LIGAND_LIPOPHILIC_EFFICIENCY range: ++, +, 0, -, -->
--

> <BIOSOLVEIT.INTER_CLASH range: red, yellow, green>
green

> <BIOSOLVEIT.INTRA_CLASH range: red, yellow, green>
green

> <BIOSOLVEIT.LOGP>
4.8829

> <BIOSOLVEIT.MOLECULAR WEIGHT>
448.323

> <BIOSOLVEIT.MOLECULE_CHECKSUM>
LTE2LjU2ODU7MC41NTIyODM=

> <BIOSOLVEIT.TORSION_QUALITY range: red, yellow, green, not rotatable>
yellow

> <BIOSOLVEIT.TPSA>
66.06

> <BIOSOLVEIT.SEESAR_FAVORITE>
favorite

> <smc_score>
0.75

> <QED_score>
0.605

> <distance>
0.738

> <SimilarityPheSA_1>
0.637

> <Smiles>
O=C(Cc1n[nH]c(=O)c2ccc(F)cc12)N(Cc1ccc(Cl)c(Cl)c1)C1CCCC1

> <Similarity_SkelSpheres>
0.604

> <Cluster No>
330.0

> <QueryID>
CHO-MSK-00c5269a-2

> <SimilarityPheSA>
0.6366

> <Postera series>
3-aminopyridine-like

> <PDB_code>
Mpro-x12177

> <Approach>
DGM_exploratory_RL

> <ID>
20210628_748

> <SimilarityPheSA_2>
0.68

> <OPTIBRIUM.logD>
4.17741

> <OPTIBRIUM.BBB category>
-

> <OPTIBRIUM.logP>
4.17741

> <OPTIBRIUM.P-gp category>
yes

> <OPTIBRIUM.logS>
0.118412

> <OPTIBRIUM.HIA category>
+

> <OPTIBRIUM.PPB90 category>
high

> <OPTIBRIUM.2D6 affinity category>
high

> <OPTIBRIUM.hERG pIC50>
6.00867

> <OPTIBRIUM.2C9 pKi>
5.31428

> <OPTIBRIUM.BBB log([brain]:[blood])>
-1.15394

> <OPTIBRIUM.logS @ pH7.4>
0.118412

$$$$
Compound 330_1_02
haSeeSAR  07122111353D 1   1.00000     0.00000     0
SeeSAR 11.0.2 hazemaj
 47 50  0  0  0  0            999 V2000
    7.3375    4.1639   31.4265 Cl  0  0  0  0  0  0  0  0  0  0  0  0
    7.7669    3.1242   30.0465 C   0  0  0  0  0  0  0  0  0  0  0  0
    8.6429    2.0587   30.2245 C   0  0  0  0  0  0  0  0  0  0  0  0
    7.2181    3.3870   28.7966 C   0  0  0  0  0  0  0  0  0  0  0  0
    9.3324    1.7443   31.8349 Cl  0  0  0  0  0  0  0  0  0  0  0  0
    8.9839    1.2390   29.1532 C   0  0  0  0  0  0  0  0  0  0  0  0
    7.5628    2.5649   27.7297 C   0  0  0  0  0  0  0  0  0  0  0  0
    8.4387    1.4981   27.9002 C   0  0  0  0  0  0  0  0  0  0  0  0
    6.9719    2.8371   26.3557 C   0  0  0  0  0  0  0  0  0  0  0  0
    7.1518    1.6562   25.5030 N   0  0  0  0  0  0  0  0  0  0  0  0
    8.0833    1.5589   24.4744 C   0  0  0  0  0  0  0  0  0  0  0  0
    6.3746    0.4072   25.5674 C   0  0  0  0  0  0  0  0  0  0  0  0
    8.8243    2.4755   24.1497 O   0  0  0  0  0  0  0  0  0  0  0  0
    8.0473    0.2864   23.8883 N   0  0  0  0  0  0  0  0  0  0  0  0
    7.0848   -0.5422   24.6238 C   0  0  0  0  0  0  0  0  0  0  0  0
    8.8670   -0.1465   22.7431 C   0  0  0  0  0  0  0  0  0  0  0  0
    8.2567    0.3812   21.4549 C   0  0  0  0  0  0  0  0  0  0  0  0
    8.8132    1.2886   20.8366 O   0  0  0  0  0  0  0  0  0  0  0  0
    7.1273   -0.1348   20.9982 N   0  0  0  0  0  0  0  0  0  0  0  0
    6.5642    0.3521   19.8096 C   0  0  0  0  0  0  0  0  0  0  0  0
    5.3980    1.1156   19.8624 C   0  0  0  0  0  0  0  0  0  0  0  0
    7.1436    0.0839   18.5728 C   0  0  0  0  0  0  0  0  0  0  0  0
    4.8191    1.6232   18.7141 C   0  0  0  0  0  0  0  0  0  0  0  0
    4.5454    1.5363   21.0389 C   0  0  0  0  0  0  0  0  0  0  0  0
    6.5692    0.5662   17.4591 N   0  0  0  0  0  0  0  0  0  0  0  0
    3.6786    2.3489   19.0697 N   0  0  0  0  0  0  0  0  0  0  0  0
    5.4518    1.3117   17.5117 C   0  0  0  0  0  0  0  0  0  0  0  0
    3.7650    2.7030   20.4910 C   0  0  0  0  0  0  0  0  0  0  0  0
    6.5878    4.1524   28.6674 H   0  0  0  0  0  0  0  0  0  0  0  0
    9.6134    0.4729   29.2827 H   0  0  0  0  0  0  0  0  0  0  0  0
    8.6765    0.9172   27.1218 H   0  0  0  0  0  0  0  0  0  0  0  0
    7.4360    3.6205   25.9424 H   0  0  0  0  0  0  0  0  0  0  0  0
    5.9963    3.0374   26.4461 H   0  0  0  0  0  0  0  0  0  0  0  0
    5.4334    0.5626   25.2677 H   0  0  0  0  0  0  0  0  0  0  0  0
    6.3721    0.0419   26.4982 H   0  0  0  0  0  0  0  0  0  0  0  0
    6.4320   -0.9628   23.9937 H   0  0  0  0  0  0  0  0  0  0  0  0
    7.5593   -1.2567   25.1380 H   0  0  0  0  0  0  0  0  0  0  0  0
    8.8967   -1.1455   22.7132 H   0  0  0  0  0  0  0  0  0  0  0  0
    9.7953    0.2117   22.8433 H   0  0  0  0  0  0  0  0  0  0  0  0
    6.6752   -0.8718   21.5004 H   0  0  0  0  0  0  0  0  0  0  0  0
    7.9791   -0.4623   18.5142 H   0  0  0  0  0  0  0  0  0  0  0  0
    5.1136    1.8155   21.8131 H   0  0  0  0  0  0  0  0  0  0  0  0
    3.9349    0.7970   21.3230 H   0  0  0  0  0  0  0  0  0  0  0  0
    2.9265    2.5879   18.4556 H   0  0  0  0  0  0  0  0  0  0  0  0
    5.0606    1.6550   16.6579 H   0  0  0  0  0  0  0  0  0  0  0  0
    4.2537    3.5653   20.6244 H   0  0  0  0  0  0  0  0  0  0  0  0
    2.8585    2.7656   20.9083 H   0  0  0  0  0  0  0  0  0  0  0  0
  1  2  1  0  0  0  0
  2  3  2  0  0  0  0
  2  4  1  0  0  0  0
  3  5  1  0  0  0  0
  3  6  1  0  0  0  0
  4  7  2  0  0  0  0
  6  8  2  0  0  0  0
  7  9  1  0  0  0  0
  9 10  1  0  0  0  0
 10 11  1  0  0  0  0
 10 12  1  0  0  0  0
 11 13  2  0  0  0  0
 11 14  1  0  0  0  0
 12 15  1  0  0  0  0
 14 16  1  0  0  0  0
 16 17  1  0  0  0  0
 17 18  2  0  0  0  0
 17 19  1  0  0  0  0
 19 20  1  0  0  0  0
 20 21  2  0  0  0  0
 20 22  1  0  0  0  0
 21 23  1  0  0  0  0
 21 24  1  0  0  0  0
 22 25  2  0  0  0  0
 23 26  1  0  0  0  0
 23 27  2  0  0  0  0
 24 28  1  0  0  0  0
  7  8  1  0  0  0  0
 14 15  1  0  0  0  0
 25 27  1  0  0  0  0
 26 28  1  0  0  0  0
  4 29  1  0  0  0  0
  6 30  1  0  0  0  0
  8 31  1  0  0  0  0
  9 32  1  0  0  0  0
  9 33  1  0  0  0  0
 12 34  1  0  0  0  0
 12 35  1  0  0  0  0
 15 36  1  0  0  0  0
 15 37  1  0  0  0  0
 16 38  1  0  0  0  0
 16 39  1  0  0  0  0
 19 40  1  0  0  0  0
 22 41  1  0  0  0  0
 24 42  1  0  0  0  0
 24 43  1  0  0  0  0
 26 44  1  0  0  0  0
 27 45  1  0  0  0  0
 28 46  1  0  0  0  0
 28 47  1  0  0  0  0
M  END
> <BIOSOLVEIT.HYDE_ESTIMATED_AFFINITY_LOWER_BOUNDARY [nM]>
126537.491492

> <BIOSOLVEIT.HYDE_ESTIMATED_AFFINITY_UPPER_BOUNDARY [nM]>
12572247.928584

> <BIOSOLVEIT.HYDE_LIGAND_EFFICIENCY range: ++, +, 0, -, -->
--

> <BIOSOLVEIT.HYDE_LIGAND_LIPOPHILIC_EFFICIENCY range: ++, +, 0, -, -->
--

> <BIOSOLVEIT.INTER_CLASH range: red, yellow, green>
green

> <BIOSOLVEIT.INTRA_CLASH range: red, yellow, green>
green

> <BIOSOLVEIT.LOGP>
3.2327

> <BIOSOLVEIT.MOLECULAR WEIGHT>
420.298

> <BIOSOLVEIT.MOLECULE_CHECKSUM>
LTE2LjU0ODY7MC41OTEwMg==

> <BIOSOLVEIT.TORSION_QUALITY range: red, yellow, green, not rotatable>
green

> <BIOSOLVEIT.TPSA>
77.57

> <BIOSOLVEIT.SEESAR_FAVORITE>
favorite

> <smc_score>
0.875

> <QED_score>
0.779

> <distance>
0.522

> <SimilarityPheSA_1>
0.664

> <Smiles>
O=C(CN1CCN(Cc2ccc(Cl)c(Cl)c2)C1=O)Nc1cncc2c1CCN2

> <Similarity_SkelSpheres>
0.672

> <Cluster No>
165.0

> <QueryID>
PET-UNK-c9c1e0d8-3

> <SimilarityPheSA>
0.6641

> <Postera series>
3-aminopyridine-like

> <PDB_code>
Mpro-x12587

> <Approach>
DGM_focussed_RL

> <ID>
20210618_329

> <SimilarityPheSA_2>
0.672

> <OPTIBRIUM.logD>
2.24858

> <OPTIBRIUM.BBB category>
-

> <OPTIBRIUM.logP>
2.16387

> <OPTIBRIUM.P-gp category>
yes

> <OPTIBRIUM.logS>
2.07129

> <OPTIBRIUM.HIA category>
+

> <OPTIBRIUM.PPB90 category>
high

> <OPTIBRIUM.2D6 affinity category>
medium

> <OPTIBRIUM.hERG pIC50>
4.78816

> <OPTIBRIUM.2C9 pKi>
5.63938

> <OPTIBRIUM.BBB log([brain]:[blood])>
-0.305901

> <OPTIBRIUM.logS @ pH7.4>
1.5639

$$$$
Compound 360_1_10
haSeeSAR  07122111353D 1   1.00000     0.00000     0
SeeSAR 11.0.2 hazemaj
 39 41  0  0  0  0            999 V2000
   12.8818    1.9377   23.3209 Cl  0  0  0  0  0  0  0  0  0  0  0  0
   11.7370    0.6682   22.8259 C   0  0  0  0  0  0  0  0  0  0  0  0
   12.2187   -0.5472   22.3508 C   0  0  0  0  0  0  0  0  0  0  0  0
   10.3681    0.8960   22.9166 C   0  0  0  0  0  0  0  0  0  0  0  0
   13.9733   -0.8270   22.2403 Cl  0  0  0  0  0  0  0  0  0  0  0  0
   11.3412   -1.5526   21.9578 C   0  0  0  0  0  0  0  0  0  0  0  0
    9.4944   -0.1118   22.5232 C   0  0  0  0  0  0  0  0  0  0  0  0
    9.9709   -1.3286   22.0466 C   0  0  0  0  0  0  0  0  0  0  0  0
    7.9971    0.1329   22.6202 C   0  0  0  0  0  0  0  0  0  0  0  0
    7.4895    0.6970   21.3031 C   0  0  0  0  0  0  0  0  0  0  0  0
    8.1788    1.4962   20.6695 O   0  0  0  0  0  0  0  0  0  0  0  0
    6.3069    0.3291   20.8379 N   0  0  0  0  0  0  0  0  0  0  0  0
    6.0076    0.4911   19.4785 C   0  0  0  0  0  0  0  0  0  0  0  0
    4.9576    1.1817   18.9576 N   0  0  0  0  0  0  0  0  0  0  0  0
    6.7150   -0.0132   18.4292 C   0  0  0  0  0  0  0  0  0  0  0  0
    5.0395    1.0823   17.6533 N   0  0  0  0  0  0  0  0  0  0  0  0
    3.9144    1.8929   19.7144 C   0  0  0  0  0  0  0  0  0  0  0  0
    6.0530    0.3912   17.3088 N   0  0  0  0  0  0  0  0  0  0  0  0
    4.5220    2.8033   20.7683 C   0  0  0  0  0  0  0  0  0  0  0  0
    3.0673    2.7692   18.8022 C   0  0  0  0  0  0  0  0  0  0  0  0
    3.4488    3.5972   21.4960 C   0  0  0  0  0  0  0  0  0  0  0  0
    2.0383    3.5557   19.6016 C   0  0  0  0  0  0  0  0  0  0  0  0
    2.1406    3.3313   21.0028 O   0  0  0  0  0  0  0  0  0  0  0  0
   10.0186    1.7683   23.2585 H   0  0  0  0  0  0  0  0  0  0  0  0
   11.6908   -2.4248   21.6159 H   0  0  0  0  0  0  0  0  0  0  0  0
    9.3286   -2.0425   21.7678 H   0  0  0  0  0  0  0  0  0  0  0  0
    7.8129    0.7853   23.3554 H   0  0  0  0  0  0  0  0  0  0  0  0
    7.5303   -0.7297   22.8154 H   0  0  0  0  0  0  0  0  0  0  0  0
    5.6269   -0.0647   21.4562 H   0  0  0  0  0  0  0  0  0  0  0  0
    7.5474   -0.5655   18.4722 H   0  0  0  0  0  0  0  0  0  0  0  0
    3.3234    1.2230   20.1637 H   0  0  0  0  0  0  0  0  0  0  0  0
    5.1536    3.4393   20.3248 H   0  0  0  0  0  0  0  0  0  0  0  0
    5.0214    2.2461   21.4318 H   0  0  0  0  0  0  0  0  0  0  0  0
    2.5928    2.1892   18.1400 H   0  0  0  0  0  0  0  0  0  0  0  0
    3.6636    3.4094   18.3178 H   0  0  0  0  0  0  0  0  0  0  0  0
    3.6408    4.5722   21.3843 H   0  0  0  0  0  0  0  0  0  0  0  0
    3.4788    3.3607   22.4672 H   0  0  0  0  0  0  0  0  0  0  0  0
    1.1241    3.2846   19.3004 H   0  0  0  0  0  0  0  0  0  0  0  0
    2.1724    4.5306   19.4235 H   0  0  0  0  0  0  0  0  0  0  0  0
  1  2  1  0  0  0  0
  2  3  2  0  0  0  0
  2  4  1  0  0  0  0
  3  5  1  0  0  0  0
  3  6  1  0  0  0  0
  4  7  2  0  0  0  0
  6  8  2  0  0  0  0
  7  9  1  0  0  0  0
  9 10  1  0  0  0  0
 10 11  2  0  0  0  0
 10 12  1  0  0  0  0
 12 13  1  0  0  0  0
 13 14  1  0  0  0  0
 13 15  2  0  0  0  0
 14 16  1  0  0  0  0
 14 17  1  0  0  0  0
 15 18  1  0  0  0  0
 17 19  1  0  0  0  0
 17 20  1  0  0  0  0
 19 21  1  0  0  0  0
 20 22  1  0  0  0  0
 21 23  1  0  0  0  0
  7  8  1  0  0  0  0
 16 18  2  0  0  0  0
 22 23  1  0  0  0  0
  4 24  1  0  0  0  0
  6 25  1  0  0  0  0
  8 26  1  0  0  0  0
  9 27  1  0  0  0  0
  9 28  1  0  0  0  0
 12 29  1  0  0  0  0
 15 30  1  0  0  0  0
 17 31  1  0  0  0  0
 19 32  1  0  0  0  0
 19 33  1  0  0  0  0
 20 34  1  0  0  0  0
 20 35  1  0  0  0  0
 21 36  1  0  0  0  0
 21 37  1  0  0  0  0
 22 38  1  0  0  0  0
 22 39  1  0  0  0  0
M  END
> <BIOSOLVEIT.HYDE_ESTIMATED_AFFINITY_LOWER_BOUNDARY [nM]>
130351.884113

> <BIOSOLVEIT.HYDE_ESTIMATED_AFFINITY_UPPER_BOUNDARY [nM]>
12951230.387946

> <BIOSOLVEIT.HYDE_LIGAND_EFFICIENCY range: ++, +, 0, -, -->
--

> <BIOSOLVEIT.HYDE_LIGAND_LIPOPHILIC_EFFICIENCY range: ++, +, 0, -, -->
--

> <BIOSOLVEIT.INTER_CLASH range: red, yellow, green>
green

> <BIOSOLVEIT.INTRA_CLASH range: red, yellow, green>
green

> <BIOSOLVEIT.LOGP>
3.1176

> <BIOSOLVEIT.MOLECULAR WEIGHT>
355.223

> <BIOSOLVEIT.MOLECULE_CHECKSUM>
LTE2LjQ3NDk7MC43MTYzMDI=

> <BIOSOLVEIT.TORSION_QUALITY range: red, yellow, green, not rotatable>
yellow

> <BIOSOLVEIT.TPSA>
69.04

> <BIOSOLVEIT.SEESAR_FAVORITE>
favorite

> <smc_score>
0.563

> <QED_score>
0.915

> <distance>
0.593

> <SimilarityPheSA_1>
0.71

> <Smiles>
O=C(Cc1ccc(Cl)c(Cl)c1)Nc1cnnn1C1CCOCC1

> <Similarity_SkelSpheres>
0.685

> <Cluster No>
182.0

> <QueryID>
JAG-UCB-a3ef7265-20

> <SimilarityPheSA>
0.7104

> <Postera series>
3-aminopyridine-like

> <PDB_code>
Mpro-x10324

> <Approach>
DGM_focussed_RL

> <ID>
20210618_359

> <SimilarityPheSA_2>
0.804

> <OPTIBRIUM.logD>
3.02299

> <OPTIBRIUM.BBB category>
-

> <OPTIBRIUM.logP>
3.02299

> <OPTIBRIUM.P-gp category>
no

> <OPTIBRIUM.logS>
2.32741

> <OPTIBRIUM.HIA category>
+

> <OPTIBRIUM.PPB90 category>
high

> <OPTIBRIUM.2D6 affinity category>
high

> <OPTIBRIUM.hERG pIC50>
4.85157

> <OPTIBRIUM.2C9 pKi>
5.12299

> <OPTIBRIUM.BBB log([brain]:[blood])>
-0.141794

> <OPTIBRIUM.logS @ pH7.4>
2.32741

$$$$
Compound 330_1_09
haSeeSAR  07122111353D 1   1.00000     0.00000     0
SeeSAR 11.0.2 hazemaj
 47 50  0  0  0  0            999 V2000
    6.4183   -0.8325   31.3914 Cl  0  0  0  0  0  0  0  0  0  0  0  0
    6.5121   -1.6744   29.8255 C   0  0  0  0  0  0  0  0  0  0  0  0
    7.1100   -2.9274   29.7442 C   0  0  0  0  0  0  0  0  0  0  0  0
    5.9821   -1.0692   28.6918 C   0  0  0  0  0  0  0  0  0  0  0  0
    7.7817   -3.6801   31.2106 Cl  0  0  0  0  0  0  0  0  0  0  0  0
    7.1871   -3.5949   28.5259 C   0  0  0  0  0  0  0  0  0  0  0  0
    6.0624   -1.7405   27.4770 C   0  0  0  0  0  0  0  0  0  0  0  0
    6.6594   -2.9935   27.3883 C   0  0  0  0  0  0  0  0  0  0  0  0
    5.4875   -1.0940   26.2269 C   0  0  0  0  0  0  0  0  0  0  0  0
    6.5562   -0.3977   25.5006 N   0  0  0  0  0  0  0  0  0  0  0  0
    7.2044   -0.8997   24.3769 C   0  0  0  0  0  0  0  0  0  0  0  0
    7.1356    0.9114   25.8452 C   0  0  0  0  0  0  0  0  0  0  0  0
    6.9723   -2.0026   23.9035 O   0  0  0  0  0  0  0  0  0  0  0  0
    8.1329    0.0263   23.8821 N   0  0  0  0  0  0  0  0  0  0  0  0
    8.0424    1.2544   24.6807 C   0  0  0  0  0  0  0  0  0  0  0  0
    9.0252   -0.1956   22.7309 C   0  0  0  0  0  0  0  0  0  0  0  0
    8.3706    0.3462   21.4706 C   0  0  0  0  0  0  0  0  0  0  0  0
    8.8712    1.3031   20.8796 O   0  0  0  0  0  0  0  0  0  0  0  0
    7.2629   -0.2108   21.0088 N   0  0  0  0  0  0  0  0  0  0  0  0
    6.6589    0.2891   19.8459 C   0  0  0  0  0  0  0  0  0  0  0  0
    5.4890    1.0419   19.9468 C   0  0  0  0  0  0  0  0  0  0  0  0
    7.2015    0.0445   18.5877 C   0  0  0  0  0  0  0  0  0  0  0  0
    4.8703    1.5618   18.8250 C   0  0  0  0  0  0  0  0  0  0  0  0
    4.6704    1.4376   21.1556 C   0  0  0  0  0  0  0  0  0  0  0  0
    6.5886    0.5386   17.5000 N   0  0  0  0  0  0  0  0  0  0  0  0
    3.7359    2.2725   19.2271 N   0  0  0  0  0  0  0  0  0  0  0  0
    5.4676    1.2737   17.5989 C   0  0  0  0  0  0  0  0  0  0  0  0
    3.8640    2.6060   20.6502 C   0  0  0  0  0  0  0  0  0  0  0  0
    5.5514   -0.1685   28.7490 H   0  0  0  0  0  0  0  0  0  0  0  0
    7.6167   -4.4962   28.4690 H   0  0  0  0  0  0  0  0  0  0  0  0
    6.7094   -3.4621   26.5062 H   0  0  0  0  0  0  0  0  0  0  0  0
    4.7790   -0.4379   26.4867 H   0  0  0  0  0  0  0  0  0  0  0  0
    5.0900   -1.7990   25.6397 H   0  0  0  0  0  0  0  0  0  0  0  0
    7.6604    0.8514   26.6942 H   0  0  0  0  0  0  0  0  0  0  0  0
    6.4165    1.5989   25.9458 H   0  0  0  0  0  0  0  0  0  0  0  0
    8.9470    1.5253   25.0097 H   0  0  0  0  0  0  0  0  0  0  0  0
    7.6491    1.9965   24.1379 H   0  0  0  0  0  0  0  0  0  0  0  0
    9.1941   -1.1754   22.6240 H   0  0  0  0  0  0  0  0  0  0  0  0
    9.8928    0.2773   22.8857 H   0  0  0  0  0  0  0  0  0  0  0  0
    6.8564   -0.9881   21.4888 H   0  0  0  0  0  0  0  0  0  0  0  0
    8.0390   -0.4939   18.4947 H   0  0  0  0  0  0  0  0  0  0  0  0
    5.2603    1.7101   21.9158 H   0  0  0  0  0  0  0  0  0  0  0  0
    4.0750    0.6891   21.4473 H   0  0  0  0  0  0  0  0  0  0  0  0
    2.9630    2.5144   18.6404 H   0  0  0  0  0  0  0  0  0  0  0  0
    5.0471    1.6266   16.7630 H   0  0  0  0  0  0  0  0  0  0  0  0
    4.3497    3.4702   20.7814 H   0  0  0  0  0  0  0  0  0  0  0  0
    2.9705    2.6546   21.0966 H   0  0  0  0  0  0  0  0  0  0  0  0
  1  2  1  0  0  0  0
  2  3  2  0  0  0  0
  2  4  1  0  0  0  0
  3  5  1  0  0  0  0
  3  6  1  0  0  0  0
  4  7  2  0  0  0  0
  6  8  2  0  0  0  0
  7  9  1  0  0  0  0
  9 10  1  0  0  0  0
 10 11  1  0  0  0  0
 10 12  1  0  0  0  0
 11 13  2  0  0  0  0
 11 14  1  0  0  0  0
 12 15  1  0  0  0  0
 14 16  1  0  0  0  0
 16 17  1  0  0  0  0
 17 18  2  0  0  0  0
 17 19  1  0  0  0  0
 19 20  1  0  0  0  0
 20 21  2  0  0  0  0
 20 22  1  0  0  0  0
 21 23  1  0  0  0  0
 21 24  1  0  0  0  0
 22 25  2  0  0  0  0
 23 26  1  0  0  0  0
 23 27  2  0  0  0  0
 24 28  1  0  0  0  0
  7  8  1  0  0  0  0
 14 15  1  0  0  0  0
 25 27  1  0  0  0  0
 26 28  1  0  0  0  0
  4 29  1  0  0  0  0
  6 30  1  0  0  0  0
  8 31  1  0  0  0  0
  9 32  1  0  0  0  0
  9 33  1  0  0  0  0
 12 34  1  0  0  0  0
 12 35  1  0  0  0  0
 15 36  1  0  0  0  0
 15 37  1  0  0  0  0
 16 38  1  0  0  0  0
 16 39  1  0  0  0  0
 19 40  1  0  0  0  0
 22 41  1  0  0  0  0
 24 42  1  0  0  0  0
 24 43  1  0  0  0  0
 26 44  1  0  0  0  0
 27 45  1  0  0  0  0
 28 46  1  0  0  0  0
 28 47  1  0  0  0  0
M  END
> <BIOSOLVEIT.HYDE_ESTIMATED_AFFINITY_LOWER_BOUNDARY [nM]>
148974.610436

> <BIOSOLVEIT.HYDE_ESTIMATED_AFFINITY_UPPER_BOUNDARY [nM]>
14801508.354397

> <BIOSOLVEIT.HYDE_LIGAND_EFFICIENCY range: ++, +, 0, -, -->
--

> <BIOSOLVEIT.HYDE_LIGAND_LIPOPHILIC_EFFICIENCY range: ++, +, 0, -, -->
--

> <BIOSOLVEIT.INTER_CLASH range: red, yellow, green>
green

> <BIOSOLVEIT.INTRA_CLASH range: red, yellow, green>
green

> <BIOSOLVEIT.LOGP>
3.2327

> <BIOSOLVEIT.MOLECULAR WEIGHT>
420.298

> <BIOSOLVEIT.MOLECULE_CHECKSUM>
LTE2LjE0Mzk7MC41NzY1Njg=

> <BIOSOLVEIT.TORSION_QUALITY range: red, yellow, green, not rotatable>
green

> <BIOSOLVEIT.TPSA>
77.57

> <BIOSOLVEIT.SEESAR_FAVORITE>
favorite

> <smc_score>
0.875

> <QED_score>
0.779

> <distance>
0.522

> <SimilarityPheSA_1>
0.664

> <Smiles>
O=C(CN1CCN(Cc2ccc(Cl)c(Cl)c2)C1=O)Nc1cncc2c1CCN2

> <Similarity_SkelSpheres>
0.672

> <Cluster No>
165.0

> <QueryID>
PET-UNK-c9c1e0d8-3

> <SimilarityPheSA>
0.6641

> <Postera series>
3-aminopyridine-like

> <PDB_code>
Mpro-x12587

> <Approach>
DGM_focussed_RL

> <ID>
20210618_329

> <SimilarityPheSA_2>
0.672

> <OPTIBRIUM.logD>
2.24858

> <OPTIBRIUM.BBB category>
-

> <OPTIBRIUM.logP>
2.16387

> <OPTIBRIUM.P-gp category>
yes

> <OPTIBRIUM.logS>
2.07129

> <OPTIBRIUM.HIA category>
+

> <OPTIBRIUM.PPB90 category>
high

> <OPTIBRIUM.2D6 affinity category>
medium

> <OPTIBRIUM.hERG pIC50>
4.78816

> <OPTIBRIUM.2C9 pKi>
5.63938

> <OPTIBRIUM.BBB log([brain]:[blood])>
-0.305901

> <OPTIBRIUM.logS @ pH7.4>
1.5639

$$$$
Compound 35_1_09
haSeeSAR  07122111353D 1   1.00000     0.00000     0
SeeSAR 11.0.2 hazemaj
 48 51  0  0  0  0            999 V2000
    7.0449    0.6081   28.1170 Cl  0  0  0  0  0  0  0  0  0  0  0  0
    7.6901    0.3743   26.4738 C   0  0  0  0  0  0  0  0  0  0  0  0
    7.7051    1.4424   25.5843 C   0  0  0  0  0  0  0  0  0  0  0  0
    8.1847   -0.8536   26.0462 C   0  0  0  0  0  0  0  0  0  0  0  0
    7.0874    3.0337   26.0855 Cl  0  0  0  0  0  0  0  0  0  0  0  0
    8.1986    1.2940   24.2932 C   0  0  0  0  0  0  0  0  0  0  0  0
    8.6860   -1.0247   24.7586 C   0  0  0  0  0  0  0  0  0  0  0  0
    8.6830    0.0500   23.9030 C   0  0  0  0  0  0  0  0  0  0  0  0
    9.2416   -2.1144   24.0944 N   0  0  0  0  0  0  0  0  0  0  0  0
    9.2581   -0.4002   22.5775 C   0  0  1  0  0  0  0  0  0  0  0  0
    9.0807   -1.8976   22.6588 C   0  0  0  0  0  0  0  0  0  0  0  0
    9.8942   -3.2687   24.7230 C   0  0  0  0  0  0  0  0  0  0  0  0
    8.5223    0.2024   21.3916 C   0  0  0  0  0  0  0  0  0  0  0  0
    8.9842   -4.4819   24.6226 C   0  0  0  0  0  0  0  0  0  0  0  0
    8.9981    1.1714   20.7998 O   0  0  0  0  0  0  0  0  0  0  0  0
    7.3707   -0.3145   20.9955 N   0  0  0  0  0  0  0  0  0  0  0  0
    9.6256   -5.6574   25.3418 C   0  0  0  0  0  0  0  0  0  0  0  0
    7.6440   -4.1648   25.2657 C   0  0  0  0  0  0  0  0  0  0  0  0
    6.6927    0.2407   19.9027 C   0  0  0  0  0  0  0  0  0  0  0  0
    5.5010    0.9494   20.0386 C   0  0  0  0  0  0  0  0  0  0  0  0
    7.2379    0.0734   18.6338 C   0  0  0  0  0  0  0  0  0  0  0  0
    4.8787    1.4753   18.9124 C   0  0  0  0  0  0  0  0  0  0  0  0
    4.8928    1.1591   21.2729 C   0  0  0  0  0  0  0  0  0  0  0  0
    6.6218    0.5886   17.5594 N   0  0  0  0  0  0  0  0  0  0  0  0
    5.4740    1.2732   17.6713 C   0  0  0  0  0  0  0  0  0  0  0  0
    3.6892    2.1816   19.0594 C   0  0  0  0  0  0  0  0  0  0  0  0
    3.7022    1.8707   21.3811 C   0  0  0  0  0  0  0  0  0  0  0  0
    3.1359    2.3615   20.2682 N   0  0  0  0  0  0  0  0  0  0  0  0
    8.1801   -1.6297   26.6769 H   0  0  0  0  0  0  0  0  0  0  0  0
    8.2050    2.0661   23.6577 H   0  0  0  0  0  0  0  0  0  0  0  0
   10.2305   -0.1718   22.5301 H   0  0  0  0  0  0  0  0  0  0  0  0
    8.1743   -2.1786   22.3436 H   0  0  0  0  0  0  0  0  0  0  0  0
    9.7810   -2.3803   22.1330 H   0  0  0  0  0  0  0  0  0  0  0  0
   10.0748   -3.0662   25.6855 H   0  0  0  0  0  0  0  0  0  0  0  0
   10.7571   -3.4595   24.2549 H   0  0  0  0  0  0  0  0  0  0  0  0
    8.8452   -4.7157   23.6603 H   0  0  0  0  0  0  0  0  0  0  0  0
    6.9842   -1.1016   21.4762 H   0  0  0  0  0  0  0  0  0  0  0  0
    9.0270   -6.4557   25.2758 H   0  0  0  0  0  0  0  0  0  0  0  0
   10.5074   -5.8661   24.9188 H   0  0  0  0  0  0  0  0  0  0  0  0
    9.7647   -5.4237   26.3041 H   0  0  0  0  0  0  0  0  0  0  0  0
    7.0453   -4.9630   25.1996 H   0  0  0  0  0  0  0  0  0  0  0  0
    7.7829   -3.9310   26.2280 H   0  0  0  0  0  0  0  0  0  0  0  0
    7.2220   -3.3914   24.7925 H   0  0  0  0  0  0  0  0  0  0  0  0
    8.0927   -0.4333   18.5221 H   0  0  0  0  0  0  0  0  0  0  0  0
    5.3202    0.7909   22.0985 H   0  0  0  0  0  0  0  0  0  0  0  0
    5.0397    1.6440   16.8504 H   0  0  0  0  0  0  0  0  0  0  0  0
    3.2394    2.5614   18.2510 H   0  0  0  0  0  0  0  0  0  0  0  0
    3.2753    2.0140   22.2740 H   0  0  0  0  0  0  0  0  0  0  0  0
  1  2  1  0  0  0  0
  2  3  2  0  0  0  0
  2  4  1  0  0  0  0
  3  5  1  0  0  0  0
  3  6  1  0  0  0  0
  4  7  2  0  0  0  0
  6  8  2  0  0  0  0
  7  9  1  0  0  0  0
  8 10  1  0  0  0  0
  9 11  1  0  0  0  0
  9 12  1  0  0  0  0
 10 13  1  0  0  0  0
 12 14  1  0  0  0  0
 13 15  2  0  0  0  0
 13 16  1  0  0  0  0
 14 17  1  0  0  0  0
 14 18  1  0  0  0  0
 16 19  1  0  0  0  0
 19 20  1  0  0  0  0
 19 21  2  0  0  0  0
 20 22  1  0  0  0  0
 20 23  2  0  0  0  0
 21 24  1  0  0  0  0
 22 25  1  0  0  0  0
 22 26  2  0  0  0  0
 23 27  1  0  0  0  0
 26 28  1  0  0  0  0
  7  8  1  0  0  0  0
 10 11  1  0  0  0  0
 24 25  2  0  0  0  0
 27 28  2  0  0  0  0
  4 29  1  0  0  0  0
  6 30  1  0  0  0  0
 10 31  1  0  0  0  0
 11 32  1  0  0  0  0
 11 33  1  0  0  0  0
 12 34  1  0  0  0  0
 12 35  1  0  0  0  0
 14 36  1  0  0  0  0
 16 37  1  0  0  0  0
 17 38  1  0  0  0  0
 17 39  1  0  0  0  0
 17 40  1  0  0  0  0
 18 41  1  0  0  0  0
 18 42  1  0  0  0  0
 18 43  1  0  0  0  0
 21 44  1  0  0  0  0
 23 45  1  0  0  0  0
 25 46  1  0  0  0  0
 26 47  1  0  0  0  0
 27 48  1  0  0  0  0
M  END
> <BIOSOLVEIT.HYDE_ESTIMATED_AFFINITY_LOWER_BOUNDARY [nM]>
150888.359378

> <BIOSOLVEIT.HYDE_ESTIMATED_AFFINITY_UPPER_BOUNDARY [nM]>
14991650.626754

> <BIOSOLVEIT.HYDE_LIGAND_EFFICIENCY range: ++, +, 0, -, -->
--

> <BIOSOLVEIT.HYDE_LIGAND_LIPOPHILIC_EFFICIENCY range: ++, +, 0, -, -->
--

> <BIOSOLVEIT.INTER_CLASH range: red, yellow, green>
green

> <BIOSOLVEIT.INTRA_CLASH range: red, yellow, green>
green

> <BIOSOLVEIT.LOGP>
5.1349

> <BIOSOLVEIT.MOLECULAR WEIGHT>
415.322

> <BIOSOLVEIT.MOLECULE_CHECKSUM>
LTE2LjExMjM7MC41NzU0Mzg=

> <BIOSOLVEIT.TORSION_QUALITY range: red, yellow, green, not rotatable>
green

> <BIOSOLVEIT.TPSA>
58.12

> <BIOSOLVEIT.SEESAR_FAVORITE>
favorite

> <smc_score>
0.938

> <QED_score>
0.642

> <distance>
0.507

> <SimilarityPheSA_1>
0.652

> <Smiles>
CC(C)CN1CC(C(=O)Nc2cncc3cnccc23)c2cc(Cl)c(Cl)cc21

> <Similarity_SkelSpheres>
0.783

> <Cluster No>
18.0

> <QueryID>
MIC-UNK-91acba05-6

> <SimilarityPheSA>
0.6515

> <Postera series>
3-aminopyridine-like

> <PDB_code>
Mpro-x12710, Mpro-P0033

> <Approach>
DGM_focussed_RL

> <ID>
20210618_34

> <SimilarityPheSA_2>
0.889

> <OPTIBRIUM.logD>
3.77649

> <OPTIBRIUM.BBB category>
-

> <OPTIBRIUM.logP>
3.96341

> <OPTIBRIUM.P-gp category>
yes

> <OPTIBRIUM.logS>
-0.221759

> <OPTIBRIUM.HIA category>
+

> <OPTIBRIUM.PPB90 category>
high

> <OPTIBRIUM.2D6 affinity category>
high

> <OPTIBRIUM.hERG pIC50>
5.1943

> <OPTIBRIUM.2C9 pKi>
6.06204

> <OPTIBRIUM.BBB log([brain]:[blood])>
-0.161836

> <OPTIBRIUM.logS @ pH7.4>
0.937286

$$$$
Compound 540_1_02
haSeeSAR  07122111353D 1   1.00000     0.00000     0
SeeSAR 11.0.2 hazemaj
 35 38  0  0  0  0            999 V2000
   11.5532    1.9361   22.4376 Cl  0  0  0  0  0  0  0  0  0  0  0  0
   11.0585    0.2498   22.7203 C   0  0  0  0  0  0  0  0  0  0  0  0
   12.0161   -0.7580   22.6950 C   0  0  0  0  0  0  0  0  0  0  0  0
    9.7339   -0.0985   22.9666 C   0  0  0  0  0  0  0  0  0  0  0  0
   13.7282   -0.3818   22.3845 Cl  0  0  0  0  0  0  0  0  0  0  0  0
   11.6063   -2.0686   22.9189 C   0  0  0  0  0  0  0  0  0  0  0  0
    9.2992   -1.3770   23.1926 C   0  0  0  0  0  0  0  0  0  0  0  0
    8.5313    0.8172   23.0382 C   0  0  1  0  0  0  0  0  0  0  0  0
   10.2722   -2.3713   23.1648 C   0  0  0  0  0  0  0  0  0  0  0  0
    7.9641   -1.3846   23.4053 O   0  0  0  0  0  0  0  0  0  0  0  0
    7.9440    1.0984   21.6649 C   0  0  0  0  0  0  0  0  0  0  0  0
    7.6279   -0.0851   23.8529 C   0  0  0  0  0  0  0  0  0  0  0  0
    8.4711    1.9327   20.9291 O   0  0  0  0  0  0  0  0  0  0  0  0
    6.8662    0.4465   21.2603 N   0  0  0  0  0  0  0  0  0  0  0  0
    6.3246    0.7057   19.9942 C   0  0  0  0  0  0  0  0  0  0  0  0
    5.1414    1.3941   19.8346 N   0  0  0  0  0  0  0  0  0  0  0  0
    7.0367    0.2304   18.9205 C   0  0  0  0  0  0  0  0  0  0  0  0
    4.6781    1.6027   18.5804 C   0  0  0  0  0  0  0  0  0  0  0  0
    4.2174    1.9492   20.6773 C   0  0  0  0  0  0  0  0  0  0  0  0
    6.5756    0.4370   17.6460 N   0  0  0  0  0  0  0  0  0  0  0  0
    3.5470    2.2800   18.6859 N   0  0  0  0  0  0  0  0  0  0  0  0
    5.4392    1.1022   17.4876 C   0  0  0  0  0  0  0  0  0  0  0  0
    3.2620    2.4832   19.9551 N   0  0  0  0  0  0  0  0  0  0  0  0
    4.2640    1.9756   22.2005 C   0  0  0  0  0  0  0  0  0  0  0  0
   12.2827   -2.8049   22.9027 H   0  0  0  0  0  0  0  0  0  0  0  0
    8.7428    1.6634   23.5273 H   0  0  0  0  0  0  0  0  0  0  0  0
   10.0066   -3.3220   23.3248 H   0  0  0  0  0  0  0  0  0  0  0  0
    6.6652    0.1166   23.6725 H   0  0  0  0  0  0  0  0  0  0  0  0
    7.8118    0.0143   24.8308 H   0  0  0  0  0  0  0  0  0  0  0  0
    6.4379   -0.2313   21.8581 H   0  0  0  0  0  0  0  0  0  0  0  0
    7.8919   -0.2665   19.0682 H   0  0  0  0  0  0  0  0  0  0  0  0
    5.1025    1.2590   16.5591 H   0  0  0  0  0  0  0  0  0  0  0  0
    3.4551    2.4481   22.5505 H   0  0  0  0  0  0  0  0  0  0  0  0
    4.2801    1.0388   22.5498 H   0  0  0  0  0  0  0  0  0  0  0  0
    5.0873    2.4576   22.5004 H   0  0  0  0  0  0  0  0  0  0  0  0
  1  2  1  0  0  0  0
  2  3  2  0  0  0  0
  2  4  1  0  0  0  0
  3  5  1  0  0  0  0
  3  6  1  0  0  0  0
  4  7  2  0  0  0  0
  4  8  1  0  0  0  0
  6  9  2  0  0  0  0
  7 10  1  0  0  0  0
  8 11  1  0  0  0  0
  8 12  1  0  0  0  0
 11 13  2  0  0  0  0
 11 14  1  0  0  0  0
 14 15  1  0  0  0  0
 15 16  1  0  0  0  0
 15 17  2  0  0  0  0
 16 18  1  0  0  0  0
 16 19  1  0  0  0  0
 17 20  1  0  0  0  0
 18 21  2  0  0  0  0
 18 22  1  0  0  0  0
 19 23  2  0  0  0  0
 19 24  1  0  0  0  0
  7  9  1  0  0  0  0
 10 12  1  0  0  0  0
 20 22  2  0  0  0  0
 21 23  1  0  0  0  0
  6 25  1  0  0  0  0
  8 26  1  0  0  0  0
  9 27  1  0  0  0  0
 12 28  1  0  0  0  0
 12 29  1  0  0  0  0
 14 30  1  0  0  0  0
 17 31  1  0  0  0  0
 22 32  1  0  0  0  0
 24 33  1  0  0  0  0
 24 34  1  0  0  0  0
 24 35  1  0  0  0  0
M  END
> <BIOSOLVEIT.HYDE_ESTIMATED_AFFINITY_LOWER_BOUNDARY [nM]>
167480.559001

> <BIOSOLVEIT.HYDE_ESTIMATED_AFFINITY_UPPER_BOUNDARY [nM]>
16640183.760135

> <BIOSOLVEIT.HYDE_LIGAND_EFFICIENCY range: ++, +, 0, -, -->
--

> <BIOSOLVEIT.HYDE_LIGAND_LIPOPHILIC_EFFICIENCY range: ++, +, 0, -, -->
--

> <BIOSOLVEIT.INTER_CLASH range: red, yellow, green>
green

> <BIOSOLVEIT.INTRA_CLASH range: red, yellow, green>
green

> <BIOSOLVEIT.LOGP>
2.85422

> <BIOSOLVEIT.MOLECULAR WEIGHT>
364.191

> <BIOSOLVEIT.MOLECULE_CHECKSUM>
LTE1Ljg1MzY7MC42NjA1Njk=

> <BIOSOLVEIT.TORSION_QUALITY range: red, yellow, green, not rotatable>
green

> <BIOSOLVEIT.TPSA>
81.93

> <BIOSOLVEIT.SEESAR_FAVORITE>
favorite

> <smc_score>
0.688

> <QED_score>
0.756

> <distance>
0.608

> <SimilarityPheSA_1>
0.675

> <Smiles>
Cc1nnc2cncc(NC(=O)C3COc4ccc(Cl)c(Cl)c43)n12

> <Similarity_SkelSpheres>
0.572

> <Cluster No>
288.0

> <QueryID>
EDJ-MED-e4b030d8-13

> <SimilarityPheSA>
0.6751

> <Postera series>
3-aminopyridine-like

> <PDB_code>
Mpro-x12207

> <Approach>
DGM_focussed_RL

> <ID>
20210618_539

> <SimilarityPheSA_2>
0.919

> <OPTIBRIUM.logD>
2.6583

> <OPTIBRIUM.BBB category>
-

> <OPTIBRIUM.logP>
2.6583

> <OPTIBRIUM.P-gp category>
no

> <OPTIBRIUM.logS>
1.66321

> <OPTIBRIUM.HIA category>
+

> <OPTIBRIUM.PPB90 category>
high

> <OPTIBRIUM.2D6 affinity category>
high

> <OPTIBRIUM.hERG pIC50>
4.70586

> <OPTIBRIUM.2C9 pKi>
5.48148

> <OPTIBRIUM.BBB log([brain]:[blood])>
-0.434145

> <OPTIBRIUM.logS @ pH7.4>
1.66321

$$$$
Compound 440_1_10
haSeeSAR  07122111353D 1   1.00000     0.00000     0
SeeSAR 11.0.2 hazemaj
 42 44  0  0  0  0            999 V2000
    9.4682   -5.1325   25.7973 Cl  0  0  0  0  0  0  0  0  0  0  0  0
    9.0199   -3.4893   25.2801 C   0  0  0  0  0  0  0  0  0  0  0  0
    8.1861   -2.7191   26.0832 C   0  0  0  0  0  0  0  0  0  0  0  0
    9.5141   -3.0006   24.0759 C   0  0  0  0  0  0  0  0  0  0  0  0
    7.8478   -1.4376   25.6615 C   0  0  0  0  0  0  0  0  0  0  0  0
    9.1604   -1.7157   23.6774 C   0  0  0  0  0  0  0  0  0  0  0  0
    6.7809   -0.4420   26.6804 Cl  0  0  0  0  0  0  0  0  0  0  0  0
    8.3275   -0.9242   24.4614 C   0  0  0  0  0  0  0  0  0  0  0  0
    9.6892   -1.1616   22.3652 C   0  0  0  0  0  0  0  0  0  0  0  0
    8.5693   -0.9457   21.4376 N   0  0  0  0  0  0  0  0  0  0  0  0
    8.4773    0.1894   20.7645 C   0  0  0  0  0  0  0  0  0  0  0  0
    9.3295    1.0650   20.9149 O   0  0  0  0  0  0  0  0  0  0  0  0
    7.3712    0.4026   19.8484 C   0  0  0  0  0  0  0  0  0  0  0  0
    6.1485    0.9439   20.2465 C   0  0  0  0  0  0  0  0  0  0  0  0
    7.5569    0.0468   18.5164 C   0  0  0  0  0  0  0  0  0  0  0  0
    5.1358    1.1169   19.3065 C   0  0  0  0  0  0  0  0  0  0  0  0
    5.8919    1.3263   21.5614 C   0  0  0  0  0  0  0  0  0  0  0  0
    6.5659    0.2238   17.6301 N   0  0  0  0  0  0  0  0  0  0  0  0
    5.3817    0.7415   17.9900 C   0  0  0  0  0  0  0  0  0  0  0  0
    3.9019    1.6521   19.6621 C   0  0  0  0  0  0  0  0  0  0  0  0
    4.6682    1.8637   21.9466 C   0  0  0  0  0  0  0  0  0  0  0  0
    3.6779    2.0218   20.9844 C   0  0  0  0  0  0  0  0  0  0  0  0
    4.4714    2.2187   23.2337 O   0  0  0  0  0  0  0  0  0  0  0  0
    2.4953    2.5435   21.3712 O   0  0  0  0  0  0  0  0  0  0  0  0
    5.5120    2.0471   24.1845 C   0  0  0  0  0  0  0  0  0  0  0  0
    1.4591    2.7365   20.4196 C   0  0  0  0  0  0  0  0  0  0  0  0
    7.8361   -3.0797   26.9478 H   0  0  0  0  0  0  0  0  0  0  0  0
   10.1135   -3.5630   23.5062 H   0  0  0  0  0  0  0  0  0  0  0  0
    8.0780   -0.0016   24.1670 H   0  0  0  0  0  0  0  0  0  0  0  0
   10.3335   -1.8126   21.9641 H   0  0  0  0  0  0  0  0  0  0  0  0
   10.1546   -0.2927   22.5337 H   0  0  0  0  0  0  0  0  0  0  0  0
    7.8771   -1.6570   21.3155 H   0  0  0  0  0  0  0  0  0  0  0  0
    8.4296   -0.3412   18.2197 H   0  0  0  0  0  0  0  0  0  0  0  0
    6.6091    1.2109   22.2489 H   0  0  0  0  0  0  0  0  0  0  0  0
    4.6656    0.8591   17.3019 H   0  0  0  0  0  0  0  0  0  0  0  0
    3.1846    1.7699   18.9754 H   0  0  0  0  0  0  0  0  0  0  0  0
    5.1986    2.3589   25.0815 H   0  0  0  0  0  0  0  0  0  0  0  0
    5.7604    1.0798   24.2360 H   0  0  0  0  0  0  0  0  0  0  0  0
    6.3097    2.5817   23.9058 H   0  0  0  0  0  0  0  0  0  0  0  0
    0.6588    3.1287   20.8732 H   0  0  0  0  0  0  0  0  0  0  0  0
    1.7755    3.3594   19.7041 H   0  0  0  0  0  0  0  0  0  0  0  0
    1.2134    1.8573   20.0114 H   0  0  0  0  0  0  0  0  0  0  0  0
  1  2  1  0  0  0  0
  2  3  2  0  0  0  0
  2  4  1  0  0  0  0
  3  5  1  0  0  0  0
  4  6  2  0  0  0  0
  5  7  1  0  0  0  0
  5  8  2  0  0  0  0
  6  9  1  0  0  0  0
  9 10  1  0  0  0  0
 10 11  1  0  0  0  0
 11 12  2  0  0  0  0
 11 13  1  0  0  0  0
 13 14  1  0  0  0  0
 13 15  2  0  0  0  0
 14 16  1  0  0  0  0
 14 17  2  0  0  0  0
 15 18  1  0  0  0  0
 16 19  1  0  0  0  0
 16 20  2  0  0  0  0
 17 21  1  0  0  0  0
 20 22  1  0  0  0  0
 21 23  1  0  0  0  0
 22 24  1  0  0  0  0
 23 25  1  0  0  0  0
 24 26  1  0  0  0  0
  6  8  1  0  0  0  0
 18 19  2  0  0  0  0
 21 22  2  0  0  0  0
  3 27  1  0  0  0  0
  4 28  1  0  0  0  0
  8 29  1  0  0  0  0
  9 30  1  0  0  0  0
  9 31  1  0  0  0  0
 10 32  1  0  0  0  0
 15 33  1  0  0  0  0
 17 34  1  0  0  0  0
 19 35  1  0  0  0  0
 20 36  1  0  0  0  0
 25 37  1  0  0  0  0
 25 38  1  0  0  0  0
 25 39  1  0  0  0  0
 26 40  1  0  0  0  0
 26 41  1  0  0  0  0
 26 42  1  0  0  0  0
M  END
> <BIOSOLVEIT.HYDE_ESTIMATED_AFFINITY_LOWER_BOUNDARY [nM]>
168628.773722

> <BIOSOLVEIT.HYDE_ESTIMATED_AFFINITY_UPPER_BOUNDARY [nM]>
16754265.681453

> <BIOSOLVEIT.HYDE_LIGAND_EFFICIENCY range: ++, +, 0, -, -->
--

> <BIOSOLVEIT.HYDE_LIGAND_LIPOPHILIC_EFFICIENCY range: ++, +, 0, -, -->
--

> <BIOSOLVEIT.INTER_CLASH range: red, yellow, green>
green

> <BIOSOLVEIT.INTRA_CLASH range: red, yellow, green>
green

> <BIOSOLVEIT.LOGP>
4.4888

> <BIOSOLVEIT.MOLECULAR WEIGHT>
391.252

> <BIOSOLVEIT.MOLECULE_CHECKSUM>
LTE1LjgzNjc7MC42MDkxMDQ=

> <BIOSOLVEIT.TORSION_QUALITY range: red, yellow, green, not rotatable>
green

> <BIOSOLVEIT.TPSA>
60.45

> <BIOSOLVEIT.SEESAR_FAVORITE>
favorite

> <smc_score>
0.688

> <QED_score>
0.696

> <distance>
0.542

> <SimilarityPheSA_1>
0.634

> <Smiles>
COc1cc2cncc(C(=O)NCc3cc(Cl)cc(Cl)c3)c2cc1OC

> <Similarity_SkelSpheres>
0.716

> <Cluster No>
228.0

> <QueryID>
MAT-POS-bb423b95-1

> <SimilarityPheSA>
0.6337

> <Postera series>
3-aminopyridine-like

> <PDB_code>
Mpro-x11542

> <Approach>
DGM_focussed_RL

> <ID>
20210618_439

> <SimilarityPheSA_2>
0.865

> <OPTIBRIUM.logD>
3.61053

> <OPTIBRIUM.BBB category>
-

> <OPTIBRIUM.logP>
3.61053

> <OPTIBRIUM.P-gp category>
no

> <OPTIBRIUM.logS>
0.571622

> <OPTIBRIUM.HIA category>
+

> <OPTIBRIUM.PPB90 category>
high

> <OPTIBRIUM.2D6 affinity category>
medium

> <OPTIBRIUM.hERG pIC50>
4.64747

> <OPTIBRIUM.2C9 pKi>
5.62145

> <OPTIBRIUM.BBB log([brain]:[blood])>
-0.214112

> <OPTIBRIUM.logS @ pH7.4>
0.571622

$$$$
Compound 266_1_07
haSeeSAR  07122111353D 1   1.00000     0.00000     0
SeeSAR 11.0.2 hazemaj
 44 47  0  0  0  0            999 V2000
    9.5964    0.0863   27.3481 Cl  0  0  0  0  0  0  0  0  0  0  0  0
    9.4043   -0.7390   25.7827 C   0  0  0  0  0  0  0  0  0  0  0  0
    8.8843   -2.0266   25.7420 C   0  0  0  0  0  0  0  0  0  0  0  0
    9.7736   -0.1044   24.6041 C   0  0  0  0  0  0  0  0  0  0  0  0
    8.4106   -2.8450   27.2480 Cl  0  0  0  0  0  0  0  0  0  0  0  0
    8.7191   -2.7071   24.5420 C   0  0  0  0  0  0  0  0  0  0  0  0
    9.6028   -0.7988   23.4126 C   0  0  0  0  0  0  0  0  0  0  0  0
    9.0875   -2.0659   23.3668 C   0  0  0  0  0  0  0  0  0  0  0  0
    9.7489   -0.8225   21.9023 C   0  0  1  0  0  0  0  0  0  0  0  0
    9.1887   -2.2196   21.8691 C   0  0  0  0  0  0  0  0  0  0  0  0
    8.8023    0.1410   21.2002 C   0  0  0  0  0  0  0  0  0  0  0  0
    9.2227    1.2177   20.7767 O   0  0  0  0  0  0  0  0  0  0  0  0
    7.5280   -0.1788   21.0452 N   0  0  0  0  0  0  0  0  0  0  0  0
    6.8135    0.3062   19.9426 C   0  0  0  0  0  0  0  0  0  0  0  0
    7.2408    0.0860   18.6894 N   0  0  0  0  0  0  0  0  0  0  0  0
    5.6403    1.0302   20.1309 C   0  0  0  0  0  0  0  0  0  0  0  0
    6.5971    0.5263   17.6584 N   0  0  0  0  0  0  0  0  0  0  0  0
    4.9507    1.5040   19.0435 C   0  0  0  0  0  0  0  0  0  0  0  0
    4.9009    1.4364   21.2676 C   0  0  0  0  0  0  0  0  0  0  0  0
    5.4640    1.2312   17.7789 C   0  0  0  0  0  0  0  0  0  0  0  0
    3.8576    2.1569   19.5338 N   0  0  0  0  0  0  0  0  0  0  0  0
    3.8497    2.1030   20.8453 N   0  0  0  0  0  0  0  0  0  0  0  0
    2.8300    2.8216   18.7175 C   0  0  0  0  0  0  0  0  0  0  0  0
    1.7777    3.4338   19.6276 C   0  0  0  0  0  0  0  0  0  0  0  0
    0.7562    4.1838   18.7883 C   0  0  0  0  0  0  0  0  0  0  0  0
   -0.2246    4.7591   19.6390 O   0  0  0  0  0  0  0  0  0  0  0  0
   -0.9276    3.7277   20.3160 C   0  0  0  0  0  0  0  0  0  0  0  0
   10.1500    0.8220   24.6125 H   0  0  0  0  0  0  0  0  0  0  0  0
    8.3448   -3.6342   24.5251 H   0  0  0  0  0  0  0  0  0  0  0  0
   10.6959   -0.7596   21.5872 H   0  0  0  0  0  0  0  0  0  0  0  0
    8.3162   -2.3181   21.3904 H   0  0  0  0  0  0  0  0  0  0  0  0
    9.8229   -2.9260   21.5547 H   0  0  0  0  0  0  0  0  0  0  0  0
    7.0750   -0.7668   21.7152 H   0  0  0  0  0  0  0  0  0  0  0  0
    5.1362    1.2498   22.2214 H   0  0  0  0  0  0  0  0  0  0  0  0
    4.9886    1.5601   16.9629 H   0  0  0  0  0  0  0  0  0  0  0  0
    2.3990    2.1513   18.1134 H   0  0  0  0  0  0  0  0  0  0  0  0
    3.2547    3.5411   18.1680 H   0  0  0  0  0  0  0  0  0  0  0  0
    2.2161    4.0679   20.2647 H   0  0  0  0  0  0  0  0  0  0  0  0
    1.3191    2.7089   20.1417 H   0  0  0  0  0  0  0  0  0  0  0  0
    0.3159    3.5491   18.1534 H   0  0  0  0  0  0  0  0  0  0  0  0
    1.2153    4.9070   18.2722 H   0  0  0  0  0  0  0  0  0  0  0  0
   -1.6182    4.1327   20.9150 H   0  0  0  0  0  0  0  0  0  0  0  0
   -1.3737    3.1335   19.6468 H   0  0  0  0  0  0  0  0  0  0  0  0
   -0.2856    3.1904   20.8631 H   0  0  0  0  0  0  0  0  0  0  0  0
  1  2  1  0  0  0  0
  2  3  2  0  0  0  0
  2  4  1  0  0  0  0
  3  5  1  0  0  0  0
  3  6  1  0  0  0  0
  4  7  2  0  0  0  0
  6  8  2  0  0  0  0
  7  9  1  0  0  0  0
  8 10  1  0  0  0  0
  9 11  1  0  0  0  0
 11 12  2  0  0  0  0
 11 13  1  0  0  0  0
 13 14  1  0  0  0  0
 14 15  2  0  0  0  0
 14 16  1  0  0  0  0
 15 17  1  0  0  0  0
 16 18  2  0  0  0  0
 16 19  1  0  0  0  0
 17 20  2  0  0  0  0
 18 21  1  0  0  0  0
 19 22  2  0  0  0  0
 21 23  1  0  0  0  0
 23 24  1  0  0  0  0
 24 25  1  0  0  0  0
 25 26  1  0  0  0  0
 26 27  1  0  0  0  0
  7  8  1  0  0  0  0
  9 10  1  0  0  0  0
 18 20  1  0  0  0  0
 21 22  1  0  0  0  0
  4 28  1  0  0  0  0
  6 29  1  0  0  0  0
  9 30  1  0  0  0  0
 10 31  1  0  0  0  0
 10 32  1  0  0  0  0
 13 33  1  0  0  0  0
 19 34  1  0  0  0  0
 20 35  1  0  0  0  0
 23 36  1  0  0  0  0
 23 37  1  0  0  0  0
 24 38  1  0  0  0  0
 24 39  1  0  0  0  0
 25 40  1  0  0  0  0
 25 41  1  0  0  0  0
 27 42  1  0  0  0  0
 27 43  1  0  0  0  0
 27 44  1  0  0  0  0
M  END
> <BIOSOLVEIT.HYDE_ESTIMATED_AFFINITY_LOWER_BOUNDARY [nM]>
170028.324584

> <BIOSOLVEIT.HYDE_ESTIMATED_AFFINITY_UPPER_BOUNDARY [nM]>
16893319.334462

> <BIOSOLVEIT.HYDE_LIGAND_EFFICIENCY range: ++, +, 0, -, -->
--

> <BIOSOLVEIT.HYDE_LIGAND_LIPOPHILIC_EFFICIENCY range: ++, +, 0, -, -->
--

> <BIOSOLVEIT.INTER_CLASH range: red, yellow, green>
green

> <BIOSOLVEIT.INTRA_CLASH range: red, yellow, green>
green

> <BIOSOLVEIT.LOGP>
3.448

> <BIOSOLVEIT.MOLECULAR WEIGHT>
406.271

> <BIOSOLVEIT.MOLECULE_CHECKSUM>
LTE1LjgxNjI7MC41ODU3ODY=

> <BIOSOLVEIT.TORSION_QUALITY range: red, yellow, green, not rotatable>
red

> <BIOSOLVEIT.TPSA>
81.93

> <BIOSOLVEIT.SEESAR_FAVORITE>
favorite

> <smc_score>
0.563

> <QED_score>
0.635

> <distance>
0.682

> <SimilarityPheSA_1>
0.677

> <Smiles>
COCCCn1ncc2c(NC(=O)C3Cc4cc(Cl)c(Cl)cc43)nncc21

> <Similarity_SkelSpheres>
0.649

> <Cluster No>
130.0

> <QueryID>
JAN-GHE-5a013bed-2

> <SimilarityPheSA>
0.6768

> <Postera series>
3-aminopyridine-like

> <PDB_code>
Mpro-x10466

> <Approach>
DGM_focussed_RL

> <ID>
20210618_265

> <SimilarityPheSA_2>
0.772

> <OPTIBRIUM.logD>
3.07063

> <OPTIBRIUM.BBB category>
-

> <OPTIBRIUM.logP>
3.07063

> <OPTIBRIUM.P-gp category>
yes

> <OPTIBRIUM.logS>
1.42191

> <OPTIBRIUM.HIA category>
+

> <OPTIBRIUM.PPB90 category>
high

> <OPTIBRIUM.2D6 affinity category>
high

> <OPTIBRIUM.hERG pIC50>
5.37141

> <OPTIBRIUM.2C9 pKi>
5.37379

> <OPTIBRIUM.BBB log([brain]:[blood])>
-0.506323

> <OPTIBRIUM.logS @ pH7.4>
1.42191

$$$$
Compound 265_1_09
haSeeSAR  07122111353D 1   1.00000     0.00000     0
SeeSAR 11.0.2 hazemaj
 37 40  0  0  0  0            999 V2000
    9.3406   -0.1156   27.3892 Cl  0  0  0  0  0  0  0  0  0  0  0  0
    9.2301   -0.8890   25.7896 C   0  0  0  0  0  0  0  0  0  0  0  0
    8.7405   -2.1846   25.6832 C   0  0  0  0  0  0  0  0  0  0  0  0
    9.6328   -0.2058   24.6499 C   0  0  0  0  0  0  0  0  0  0  0  0
    8.2241   -3.0651   27.1393 Cl  0  0  0  0  0  0  0  0  0  0  0  0
    8.6389   -2.8256   24.4547 C   0  0  0  0  0  0  0  0  0  0  0  0
    9.5258   -0.8609   23.4292 C   0  0  0  0  0  0  0  0  0  0  0  0
    9.0405   -2.1359   23.3185 C   0  0  0  0  0  0  0  0  0  0  0  0
    9.7333   -0.8283   21.9262 C   0  0  1  0  0  0  0  0  0  0  0  0
    9.2057   -2.2344   21.8218 C   0  0  0  0  0  0  0  0  0  0  0  0
    8.7952    0.1399   21.2193 C   0  0  0  0  0  0  0  0  0  0  0  0
    9.2233    1.2139   20.7967 O   0  0  0  0  0  0  0  0  0  0  0  0
    7.5198   -0.1730   21.0590 N   0  0  0  0  0  0  0  0  0  0  0  0
    6.8126    0.3151   19.9529 C   0  0  0  0  0  0  0  0  0  0  0  0
    7.2462    0.0944   18.7019 N   0  0  0  0  0  0  0  0  0  0  0  0
    5.6407    1.0422   20.1353 C   0  0  0  0  0  0  0  0  0  0  0  0
    6.6094    0.5376   17.6678 N   0  0  0  0  0  0  0  0  0  0  0  0
    4.9584    1.5189   19.0448 C   0  0  0  0  0  0  0  0  0  0  0  0
    4.8962    1.4498   21.2684 C   0  0  0  0  0  0  0  0  0  0  0  0
    5.4777    1.2456   17.7827 C   0  0  0  0  0  0  0  0  0  0  0  0
    3.8646    2.1747   19.5295 N   0  0  0  0  0  0  0  0  0  0  0  0
    3.8494    2.1197   20.8409 N   0  0  0  0  0  0  0  0  0  0  0  0
    2.8434    2.8430   18.7081 C   0  0  0  0  0  0  0  0  0  0  0  0
    1.5592    2.9810   19.5097 C   0  0  0  0  0  0  0  0  0  0  0  0
    9.9883    0.7272   24.7058 H   0  0  0  0  0  0  0  0  0  0  0  0
    8.2859   -3.7591   24.3905 H   0  0  0  0  0  0  0  0  0  0  0  0
   10.6906   -0.7350   21.6528 H   0  0  0  0  0  0  0  0  0  0  0  0
    8.3557   -2.3338   21.3045 H   0  0  0  0  0  0  0  0  0  0  0  0
    9.8674   -2.9162   21.5098 H   0  0  0  0  0  0  0  0  0  0  0  0
    7.0606   -0.7580   21.7275 H   0  0  0  0  0  0  0  0  0  0  0  0
    5.1258    1.2616   22.2233 H   0  0  0  0  0  0  0  0  0  0  0  0
    5.0078    1.5765   16.9644 H   0  0  0  0  0  0  0  0  0  0  0  0
    2.6673    2.2993   17.8876 H   0  0  0  0  0  0  0  0  0  0  0  0
    3.1701    3.7502   18.4432 H   0  0  0  0  0  0  0  0  0  0  0  0
    0.8651    3.4354   18.9513 H   0  0  0  0  0  0  0  0  0  0  0  0
    1.2326    2.0738   19.7746 H   0  0  0  0  0  0  0  0  0  0  0  0
    1.7353    3.5248   20.3302 H   0  0  0  0  0  0  0  0  0  0  0  0
  1  2  1  0  0  0  0
  2  3  2  0  0  0  0
  2  4  1  0  0  0  0
  3  5  1  0  0  0  0
  3  6  1  0  0  0  0
  4  7  2  0  0  0  0
  6  8  2  0  0  0  0
  7  9  1  0  0  0  0
  8 10  1  0  0  0  0
  9 11  1  0  0  0  0
 11 12  2  0  0  0  0
 11 13  1  0  0  0  0
 13 14  1  0  0  0  0
 14 15  2  0  0  0  0
 14 16  1  0  0  0  0
 15 17  1  0  0  0  0
 16 18  2  0  0  0  0
 16 19  1  0  0  0  0
 17 20  2  0  0  0  0
 18 21  1  0  0  0  0
 19 22  2  0  0  0  0
 21 23  1  0  0  0  0
 23 24  1  0  0  0  0
  7  8  1  0  0  0  0
  9 10  1  0  0  0  0
 18 20  1  0  0  0  0
 21 22  1  0  0  0  0
  4 25  1  0  0  0  0
  6 26  1  0  0  0  0
  9 27  1  0  0  0  0
 10 28  1  0  0  0  0
 10 29  1  0  0  0  0
 13 30  1  0  0  0  0
 19 31  1  0  0  0  0
 20 32  1  0  0  0  0
 23 33  1  0  0  0  0
 23 34  1  0  0  0  0
 24 35  1  0  0  0  0
 24 36  1  0  0  0  0
 24 37  1  0  0  0  0
M  END
> <BIOSOLVEIT.HYDE_ESTIMATED_AFFINITY_LOWER_BOUNDARY [nM]>
172085.335246

> <BIOSOLVEIT.HYDE_ESTIMATED_AFFINITY_UPPER_BOUNDARY [nM]>
17097695.505693

> <BIOSOLVEIT.HYDE_LIGAND_EFFICIENCY range: ++, +, 0, -, -->
--

> <BIOSOLVEIT.HYDE_LIGAND_LIPOPHILIC_EFFICIENCY range: ++, +, 0, -, -->
--

> <BIOSOLVEIT.INTER_CLASH range: red, yellow, green>
green

> <BIOSOLVEIT.INTRA_CLASH range: red, yellow, green>
green

> <BIOSOLVEIT.LOGP>
3.4314

> <BIOSOLVEIT.MOLECULAR WEIGHT>
362.219

> <BIOSOLVEIT.MOLECULE_CHECKSUM>
LTE1Ljc4NjQ7MC42NTc3Njc=

> <BIOSOLVEIT.TORSION_QUALITY range: red, yellow, green, not rotatable>
red

> <BIOSOLVEIT.TPSA>
72.7

> <BIOSOLVEIT.SEESAR_FAVORITE>
favorite

> <smc_score>
0.563

> <QED_score>
0.775

> <distance>
0.714

> <SimilarityPheSA_1>
0.768

> <Smiles>
CCn1ncc2c(NC(=O)C3Cc4cc(Cl)c(Cl)cc43)nncc21

> <Similarity_SkelSpheres>
0.622

> <Cluster No>
130.0

> <QueryID>
JAN-GHE-5a013bed-2

> <SimilarityPheSA>
0.7677

> <Postera series>
3-aminopyridine-like

> <PDB_code>
Mpro-x10466

> <Approach>
DGM_focussed_RL

> <ID>
20210618_264

> <SimilarityPheSA_2>
0.872

> <OPTIBRIUM.logD>
3.50162

> <OPTIBRIUM.BBB category>
-

> <OPTIBRIUM.logP>
3.50162

> <OPTIBRIUM.P-gp category>
no

> <OPTIBRIUM.logS>
0.907815

> <OPTIBRIUM.HIA category>
+

> <OPTIBRIUM.PPB90 category>
high

> <OPTIBRIUM.2D6 affinity category>
high

> <OPTIBRIUM.hERG pIC50>
5.26866

> <OPTIBRIUM.2C9 pKi>
5.46401

> <OPTIBRIUM.BBB log([brain]:[blood])>
-0.386586

> <OPTIBRIUM.logS @ pH7.4>
0.907815

$$$$
Compound 266_1_08
haSeeSAR  07122111353D 1   1.00000     0.00000     0
SeeSAR 11.0.2 hazemaj
 44 47  0  0  0  0            999 V2000
    9.5954    0.0927   27.3431 Cl  0  0  0  0  0  0  0  0  0  0  0  0
    9.4001   -0.7341   25.7789 C   0  0  0  0  0  0  0  0  0  0  0  0
    8.8783   -2.0209   25.7402 C   0  0  0  0  0  0  0  0  0  0  0  0
    9.7688   -0.1012   24.5991 C   0  0  0  0  0  0  0  0  0  0  0  0
    8.4055   -2.8370   27.2476 Cl  0  0  0  0  0  0  0  0  0  0  0  0
    8.7106   -2.7025   24.5412 C   0  0  0  0  0  0  0  0  0  0  0  0
    9.5955   -0.7966   23.4086 C   0  0  0  0  0  0  0  0  0  0  0  0
    9.0784   -2.0630   23.3648 C   0  0  0  0  0  0  0  0  0  0  0  0
    9.7396   -0.8221   21.8981 C   0  0  1  0  0  0  0  0  0  0  0  0
    9.1775   -2.2184   21.8671 C   0  0  0  0  0  0  0  0  0  0  0  0
    8.7935    0.1420   21.1963 C   0  0  0  0  0  0  0  0  0  0  0  0
    9.2145    1.2184   20.7724 O   0  0  0  0  0  0  0  0  0  0  0  0
    7.5189   -0.1769   21.0418 N   0  0  0  0  0  0  0  0  0  0  0  0
    6.8043    0.3085   19.9393 C   0  0  0  0  0  0  0  0  0  0  0  0
    7.2331    0.0911   18.6862 N   0  0  0  0  0  0  0  0  0  0  0  0
    5.6296    1.0298   20.1278 C   0  0  0  0  0  0  0  0  0  0  0  0
    6.5893    0.5319   17.6554 N   0  0  0  0  0  0  0  0  0  0  0  0
    4.9399    1.5041   19.0407 C   0  0  0  0  0  0  0  0  0  0  0  0
    4.8884    1.4328   21.2646 C   0  0  0  0  0  0  0  0  0  0  0  0
    5.4547    1.2342   17.7761 C   0  0  0  0  0  0  0  0  0  0  0  0
    3.8450    2.1540   19.5311 N   0  0  0  0  0  0  0  0  0  0  0  0
    3.8362    2.0980   20.8426 N   0  0  0  0  0  0  0  0  0  0  0  0
    2.8168    2.8179   18.7151 C   0  0  0  0  0  0  0  0  0  0  0  0
    1.9824    3.7323   19.5971 C   0  0  0  0  0  0  0  0  0  0  0  0
    0.5506    3.2241   19.6426 C   0  0  0  0  0  0  0  0  0  0  0  0
   -0.2357    4.0954   20.4419 O   0  0  0  0  0  0  0  0  0  0  0  0
   -1.5812    3.6416   20.4540 C   0  0  0  0  0  0  0  0  0  0  0  0
   10.1465    0.8247   24.6061 H   0  0  0  0  0  0  0  0  0  0  0  0
    8.3350   -3.6291   24.5257 H   0  0  0  0  0  0  0  0  0  0  0  0
   10.6863   -0.7608   21.5817 H   0  0  0  0  0  0  0  0  0  0  0  0
    8.3042   -2.3161   21.3897 H   0  0  0  0  0  0  0  0  0  0  0  0
    9.8103   -2.9260   21.5526 H   0  0  0  0  0  0  0  0  0  0  0  0
    7.0657   -0.7644   21.7121 H   0  0  0  0  0  0  0  0  0  0  0  0
    5.1233    1.2451   22.2183 H   0  0  0  0  0  0  0  0  0  0  0  0
    4.9793    1.5635   16.9602 H   0  0  0  0  0  0  0  0  0  0  0  0
    2.2260    2.1279   18.2971 H   0  0  0  0  0  0  0  0  0  0  0  0
    3.2576    3.3579   17.9980 H   0  0  0  0  0  0  0  0  0  0  0  0
    1.9954    4.6595   19.2227 H   0  0  0  0  0  0  0  0  0  0  0  0
    2.3625    3.7410   20.5221 H   0  0  0  0  0  0  0  0  0  0  0  0
    0.5353    2.3053   20.0369 H   0  0  0  0  0  0  0  0  0  0  0  0
    0.1776    3.1952   18.7152 H   0  0  0  0  0  0  0  0  0  0  0  0
   -2.1349    4.2551   21.0169 H   0  0  0  0  0  0  0  0  0  0  0  0
   -1.9384    3.6329   19.5199 H   0  0  0  0  0  0  0  0  0  0  0  0
   -1.6178    2.7171   20.8334 H   0  0  0  0  0  0  0  0  0  0  0  0
  1  2  1  0  0  0  0
  2  3  2  0  0  0  0
  2  4  1  0  0  0  0
  3  5  1  0  0  0  0
  3  6  1  0  0  0  0
  4  7  2  0  0  0  0
  6  8  2  0  0  0  0
  7  9  1  0  0  0  0
  8 10  1  0  0  0  0
  9 11  1  0  0  0  0
 11 12  2  0  0  0  0
 11 13  1  0  0  0  0
 13 14  1  0  0  0  0
 14 15  2  0  0  0  0
 14 16  1  0  0  0  0
 15 17  1  0  0  0  0
 16 18  2  0  0  0  0
 16 19  1  0  0  0  0
 17 20  2  0  0  0  0
 18 21  1  0  0  0  0
 19 22  2  0  0  0  0
 21 23  1  0  0  0  0
 23 24  1  0  0  0  0
 24 25  1  0  0  0  0
 25 26  1  0  0  0  0
 26 27  1  0  0  0  0
  7  8  1  0  0  0  0
  9 10  1  0  0  0  0
 18 20  1  0  0  0  0
 21 22  1  0  0  0  0
  4 28  1  0  0  0  0
  6 29  1  0  0  0  0
  9 30  1  0  0  0  0
 10 31  1  0  0  0  0
 10 32  1  0  0  0  0
 13 33  1  0  0  0  0
 19 34  1  0  0  0  0
 20 35  1  0  0  0  0
 23 36  1  0  0  0  0
 23 37  1  0  0  0  0
 24 38  1  0  0  0  0
 24 39  1  0  0  0  0
 25 40  1  0  0  0  0
 25 41  1  0  0  0  0
 27 42  1  0  0  0  0
 27 43  1  0  0  0  0
 27 44  1  0  0  0  0
M  END
> <BIOSOLVEIT.HYDE_ESTIMATED_AFFINITY_LOWER_BOUNDARY [nM]>
176526.538916

> <BIOSOLVEIT.HYDE_ESTIMATED_AFFINITY_UPPER_BOUNDARY [nM]>
17538955.348815

> <BIOSOLVEIT.HYDE_LIGAND_EFFICIENCY range: ++, +, 0, -, -->
--

> <BIOSOLVEIT.HYDE_LIGAND_LIPOPHILIC_EFFICIENCY range: ++, +, 0, -, -->
--

> <BIOSOLVEIT.INTER_CLASH range: red, yellow, green>
green

> <BIOSOLVEIT.INTRA_CLASH range: red, yellow, green>
green

> <BIOSOLVEIT.LOGP>
3.448

> <BIOSOLVEIT.MOLECULAR WEIGHT>
406.271

> <BIOSOLVEIT.MOLECULE_CHECKSUM>
LTE1LjcyMzI7MC41ODIzNDI=

> <BIOSOLVEIT.TORSION_QUALITY range: red, yellow, green, not rotatable>
red

> <BIOSOLVEIT.TPSA>
81.93

> <BIOSOLVEIT.SEESAR_FAVORITE>
favorite

> <smc_score>
0.563

> <QED_score>
0.635

> <distance>
0.682

> <SimilarityPheSA_1>
0.677

> <Smiles>
COCCCn1ncc2c(NC(=O)C3Cc4cc(Cl)c(Cl)cc43)nncc21

> <Similarity_SkelSpheres>
0.649

> <Cluster No>
130.0

> <QueryID>
JAN-GHE-5a013bed-2

> <SimilarityPheSA>
0.6768

> <Postera series>
3-aminopyridine-like

> <PDB_code>
Mpro-x10466

> <Approach>
DGM_focussed_RL

> <ID>
20210618_265

> <SimilarityPheSA_2>
0.772

> <OPTIBRIUM.logD>
3.07063

> <OPTIBRIUM.BBB category>
-

> <OPTIBRIUM.logP>
3.07063

> <OPTIBRIUM.P-gp category>
yes

> <OPTIBRIUM.logS>
1.42191

> <OPTIBRIUM.HIA category>
+

> <OPTIBRIUM.PPB90 category>
high

> <OPTIBRIUM.2D6 affinity category>
high

> <OPTIBRIUM.hERG pIC50>
5.37141

> <OPTIBRIUM.2C9 pKi>
5.37379

> <OPTIBRIUM.BBB log([brain]:[blood])>
-0.506323

> <OPTIBRIUM.logS @ pH7.4>
1.42191

$$$$
Compound 2_1_3
haSeeSAR  07122111353D 1   1.00000     0.00000     0
SeeSAR 11.0.2 hazemaj
 42 45  0  0  0  0            999 V2000
    6.2018    0.7877   28.5030 Cl  0  0  0  0  0  0  0  0  0  0  0  0
    6.6218    1.4282   26.8941 C   0  0  0  0  0  0  0  0  0  0  0  0
    6.3573    0.6538   25.7689 C   0  0  0  0  0  0  0  0  0  0  0  0
    7.2086    2.6805   26.7210 C   0  0  0  0  0  0  0  0  0  0  0  0
    5.6105   -0.9539   25.9271 Cl  0  0  0  0  0  0  0  0  0  0  0  0
    6.6748    1.1247   24.4985 C   0  0  0  0  0  0  0  0  0  0  0  0
    7.5380    3.1803   25.4624 C   0  0  0  0  0  0  0  0  0  0  0  0
    7.2597    2.3803   24.3777 C   0  0  0  0  0  0  0  0  0  0  0  0
    8.0914    4.3331   25.0440 O   0  0  0  0  0  0  0  0  0  0  0  0
    7.7138    3.1187   23.1360 C   0  0  1  0  0  0  0  0  0  0  0  0
    8.6867    4.0820   23.7870 C   0  0  0  0  0  0  0  0  0  0  0  0
    8.3893    2.2028   22.1259 C   0  0  0  0  0  0  0  0  0  0  0  0
    8.3310    2.4628   20.9241 O   0  0  0  0  0  0  0  0  0  0  0  0
    9.0393    1.1273   22.5394 N   0  0  0  0  0  0  0  0  0  0  0  0
    9.6919    0.2425   21.5636 C   0  0  0  0  0  0  0  0  0  0  0  0
    8.7293   -0.8615   21.1574 C   0  0  0  0  0  0  0  0  0  0  0  0
    7.3966   -0.3753   21.2232 O   0  0  0  0  0  0  0  0  0  0  0  0
    6.8031    0.1206   20.1156 C   0  0  0  0  0  0  0  0  0  0  0  0
    5.5943    0.8132   20.1575 C   0  0  0  0  0  0  0  0  0  0  0  0
    7.4278   -0.0705   18.8878 C   0  0  0  0  0  0  0  0  0  0  0  0
    5.0430    1.2965   18.9763 C   0  0  0  0  0  0  0  0  0  0  0  0
    4.9062    1.0446   21.3443 C   0  0  0  0  0  0  0  0  0  0  0  0
    6.8765    0.4039   17.7610 N   0  0  0  0  0  0  0  0  0  0  0  0
    5.7144    1.0733   17.7787 C   0  0  0  0  0  0  0  0  0  0  0  0
    3.8366    1.9876   19.0242 C   0  0  0  0  0  0  0  0  0  0  0  0
    3.7022    1.7406   21.3515 C   0  0  0  0  0  0  0  0  0  0  0  0
    3.2049    2.1909   20.1903 N   0  0  0  0  0  0  0  0  0  0  0  0
    7.4000    3.2395   27.5277 H   0  0  0  0  0  0  0  0  0  0  0  0
    6.4857    0.5707   23.6878 H   0  0  0  0  0  0  0  0  0  0  0  0
    6.9518    3.6116   22.7161 H   0  0  0  0  0  0  0  0  0  0  0  0
    9.5891    3.6644   23.8936 H   0  0  0  0  0  0  0  0  0  0  0  0
    8.7699    4.9240   23.2540 H   0  0  0  0  0  0  0  0  0  0  0  0
    9.0867    0.9161   23.5157 H   0  0  0  0  0  0  0  0  0  0  0  0
   10.5088   -0.1621   21.9745 H   0  0  0  0  0  0  0  0  0  0  0  0
    9.9522    0.7715   20.7558 H   0  0  0  0  0  0  0  0  0  0  0  0
    8.8317   -1.6384   21.7787 H   0  0  0  0  0  0  0  0  0  0  0  0
    8.9319   -1.1532   20.2226 H   0  0  0  0  0  0  0  0  0  0  0  0
    8.2953   -0.5659   18.8448 H   0  0  0  0  0  0  0  0  0  0  0  0
    5.2833    0.7051   22.2059 H   0  0  0  0  0  0  0  0  0  0  0  0
    5.3268    1.4152   16.9227 H   0  0  0  0  0  0  0  0  0  0  0  0
    3.4347    2.3376   18.1780 H   0  0  0  0  0  0  0  0  0  0  0  0
    3.2147    1.9026   22.2094 H   0  0  0  0  0  0  0  0  0  0  0  0
  1  2  1  0  0  0  0
  2  3  2  0  0  0  0
  2  4  1  0  0  0  0
  3  5  1  0  0  0  0
  3  6  1  0  0  0  0
  4  7  2  0  0  0  0
  6  8  2  0  0  0  0
  7  9  1  0  0  0  0
  8 10  1  0  0  0  0
  9 11  1  0  0  0  0
 10 12  1  0  0  0  0
 12 13  2  0  0  0  0
 12 14  1  0  0  0  0
 14 15  1  0  0  0  0
 15 16  1  0  0  0  0
 16 17  1  0  0  0  0
 17 18  1  0  0  0  0
 18 19  1  0  0  0  0
 18 20  2  0  0  0  0
 19 21  1  0  0  0  0
 19 22  2  0  0  0  0
 20 23  1  0  0  0  0
 21 24  1  0  0  0  0
 21 25  2  0  0  0  0
 22 26  1  0  0  0  0
 25 27  1  0  0  0  0
  7  8  1  0  0  0  0
 10 11  1  0  0  0  0
 23 24  2  0  0  0  0
 26 27  2  0  0  0  0
  4 28  1  0  0  0  0
  6 29  1  0  0  0  0
 10 30  1  0  0  0  0
 11 31  1  0  0  0  0
 11 32  1  0  0  0  0
 14 33  1  0  0  0  0
 15 34  1  0  0  0  0
 15 35  1  0  0  0  0
 16 36  1  0  0  0  0
 16 37  1  0  0  0  0
 20 38  1  0  0  0  0
 22 39  1  0  0  0  0
 24 40  1  0  0  0  0
 25 41  1  0  0  0  0
 26 42  1  0  0  0  0
M  END
> <BIOSOLVEIT.HYDE_ESTIMATED_AFFINITY_LOWER_BOUNDARY [nM]>
179742.990862

> <BIOSOLVEIT.HYDE_ESTIMATED_AFFINITY_UPPER_BOUNDARY [nM]>
17858528.866852

> <BIOSOLVEIT.HYDE_LIGAND_EFFICIENCY range: ++, +, 0, -, -->
--

> <BIOSOLVEIT.HYDE_LIGAND_LIPOPHILIC_EFFICIENCY range: ++, +, 0, -, -->
--

> <BIOSOLVEIT.INTER_CLASH range: red, yellow, green>
green

> <BIOSOLVEIT.INTRA_CLASH range: red, yellow, green>
green

> <BIOSOLVEIT.LOGP>
3.6078

> <BIOSOLVEIT.MOLECULAR WEIGHT>
404.252

> <BIOSOLVEIT.MOLECULE_CHECKSUM>
LTE1LjY3ODU7MC41ODA2ODQ=

> <BIOSOLVEIT.TORSION_QUALITY range: red, yellow, green, not rotatable>
green

> <BIOSOLVEIT.TPSA>
73.34

> <BIOSOLVEIT.SEESAR_FAVORITE>
favorite

> <smc_score>
0.938

> <QED_score>
0.658

> <distance>
0.543

> <SimilarityPheSA_1>
0.649

> <Smiles>
O=C(NCCOc1cncc2cnccc12)C1COc2cc(Cl)c(Cl)cc21

> <Similarity_SkelSpheres>
0.757

> <Cluster No>
1.0

> <QueryID>
MAT-POS-3b92565d-1

> <SimilarityPheSA>
0.6493

> <Postera series>
3-aminopyridine-like

> <PDB_code>
Mpro-x11609

> <Approach>
DGM_focussed_RL

> <ID>
20210618_1

> <SimilarityPheSA_2>
0.703

> <OPTIBRIUM.logD>
2.644

> <OPTIBRIUM.BBB category>
-

> <OPTIBRIUM.logP>
2.644

> <OPTIBRIUM.P-gp category>
yes

> <OPTIBRIUM.logS>
0.365922

> <OPTIBRIUM.HIA category>
+

> <OPTIBRIUM.PPB90 category>
high

> <OPTIBRIUM.2D6 affinity category>
high

> <OPTIBRIUM.hERG pIC50>
4.5382

> <OPTIBRIUM.2C9 pKi>
5.56137

> <OPTIBRIUM.BBB log([brain]:[blood])>
-0.582924

> <OPTIBRIUM.logS @ pH7.4>
0.365922

$$$$
Compound 265_1_08
haSeeSAR  07122111353D 1   1.00000     0.00000     0
SeeSAR 11.0.2 hazemaj
 37 40  0  0  0  0            999 V2000
    9.3458   -0.1708   27.3581 Cl  0  0  0  0  0  0  0  0  0  0  0  0
    9.2355   -0.9311   25.7523 C   0  0  0  0  0  0  0  0  0  0  0  0
    8.7517   -2.2279   25.6358 C   0  0  0  0  0  0  0  0  0  0  0  0
    9.6324   -0.2362   24.6176 C   0  0  0  0  0  0  0  0  0  0  0  0
    8.2428   -3.1235   27.0854 Cl  0  0  0  0  0  0  0  0  0  0  0  0
    8.6506   -2.8590   24.4021 C   0  0  0  0  0  0  0  0  0  0  0  0
    9.5258   -0.8814   23.3914 C   0  0  0  0  0  0  0  0  0  0  0  0
    9.0463   -2.1576   23.2710 C   0  0  0  0  0  0  0  0  0  0  0  0
    9.7299   -0.8349   21.8884 C   0  0  1  0  0  0  0  0  0  0  0  0
    9.2087   -2.2426   21.7731 C   0  0  0  0  0  0  0  0  0  0  0  0
    8.7857    0.1348   21.1919 C   0  0  0  0  0  0  0  0  0  0  0  0
    9.2080    1.2138   20.7763 O   0  0  0  0  0  0  0  0  0  0  0  0
    7.5110   -0.1821   21.0330 N   0  0  0  0  0  0  0  0  0  0  0  0
    6.7985    0.3116   19.9329 C   0  0  0  0  0  0  0  0  0  0  0  0
    7.2285    0.1014   18.6788 N   0  0  0  0  0  0  0  0  0  0  0  0
    5.6248    1.0335   20.1245 C   0  0  0  0  0  0  0  0  0  0  0  0
    6.5869    0.5500   17.6501 N   0  0  0  0  0  0  0  0  0  0  0  0
    4.9372    1.5159   19.0397 C   0  0  0  0  0  0  0  0  0  0  0  0
    4.8829    1.4305   21.2631 C   0  0  0  0  0  0  0  0  0  0  0  0
    5.4532    1.2534   17.7740 C   0  0  0  0  0  0  0  0  0  0  0  0
    3.8429    2.1644   19.5329 N   0  0  0  0  0  0  0  0  0  0  0  0
    3.8324    2.1000   20.8439 N   0  0  0  0  0  0  0  0  0  0  0  0
    2.8168    2.8353   18.7198 C   0  0  0  0  0  0  0  0  0  0  0  0
    1.5388    2.9744   19.5309 C   0  0  0  0  0  0  0  0  0  0  0  0
    9.9836    0.6981   24.6806 H   0  0  0  0  0  0  0  0  0  0  0  0
    8.3018   -3.7934   24.3307 H   0  0  0  0  0  0  0  0  0  0  0  0
   10.6861   -0.7347   21.6137 H   0  0  0  0  0  0  0  0  0  0  0  0
    8.3580   -2.3415   21.2568 H   0  0  0  0  0  0  0  0  0  0  0  0
    9.8729   -2.9185   21.4538 H   0  0  0  0  0  0  0  0  0  0  0  0
    7.0563   -0.7740   21.6985 H   0  0  0  0  0  0  0  0  0  0  0  0
    5.1163    1.2362   22.2158 H   0  0  0  0  0  0  0  0  0  0  0  0
    4.9794    1.5886   16.9597 H   0  0  0  0  0  0  0  0  0  0  0  0
    2.6338    2.2927   17.9000 H   0  0  0  0  0  0  0  0  0  0  0  0
    3.1429    3.7423   18.4534 H   0  0  0  0  0  0  0  0  0  0  0  0
    0.8412    3.4305   18.9782 H   0  0  0  0  0  0  0  0  0  0  0  0
    1.2126    2.0675   19.7973 H   0  0  0  0  0  0  0  0  0  0  0  0
    1.7217    3.5170   20.3507 H   0  0  0  0  0  0  0  0  0  0  0  0
  1  2  1  0  0  0  0
  2  3  2  0  0  0  0
  2  4  1  0  0  0  0
  3  5  1  0  0  0  0
  3  6  1  0  0  0  0
  4  7  2  0  0  0  0
  6  8  2  0  0  0  0
  7  9  1  0  0  0  0
  8 10  1  0  0  0  0
  9 11  1  0  0  0  0
 11 12  2  0  0  0  0
 11 13  1  0  0  0  0
 13 14  1  0  0  0  0
 14 15  2  0  0  0  0
 14 16  1  0  0  0  0
 15 17  1  0  0  0  0
 16 18  2  0  0  0  0
 16 19  1  0  0  0  0
 17 20  2  0  0  0  0
 18 21  1  0  0  0  0
 19 22  2  0  0  0  0
 21 23  1  0  0  0  0
 23 24  1  0  0  0  0
  7  8  1  0  0  0  0
  9 10  1  0  0  0  0
 18 20  1  0  0  0  0
 21 22  1  0  0  0  0
  4 25  1  0  0  0  0
  6 26  1  0  0  0  0
  9 27  1  0  0  0  0
 10 28  1  0  0  0  0
 10 29  1  0  0  0  0
 13 30  1  0  0  0  0
 19 31  1  0  0  0  0
 20 32  1  0  0  0  0
 23 33  1  0  0  0  0
 23 34  1  0  0  0  0
 24 35  1  0  0  0  0
 24 36  1  0  0  0  0
 24 37  1  0  0  0  0
M  END
> <BIOSOLVEIT.HYDE_ESTIMATED_AFFINITY_LOWER_BOUNDARY [nM]>
185542.897209

> <BIOSOLVEIT.HYDE_ESTIMATED_AFFINITY_UPPER_BOUNDARY [nM]>
18434783.854139

> <BIOSOLVEIT.HYDE_LIGAND_EFFICIENCY range: ++, +, 0, -, -->
--

> <BIOSOLVEIT.HYDE_LIGAND_LIPOPHILIC_EFFICIENCY range: ++, +, 0, -, -->
--

> <BIOSOLVEIT.INTER_CLASH range: red, yellow, green>
green

> <BIOSOLVEIT.INTRA_CLASH range: red, yellow, green>
green

> <BIOSOLVEIT.LOGP>
3.4314

> <BIOSOLVEIT.MOLECULAR WEIGHT>
362.219

> <BIOSOLVEIT.MOLECULE_CHECKSUM>
LTE1LjU5OTg7MC42NDk5OQ==

> <BIOSOLVEIT.TORSION_QUALITY range: red, yellow, green, not rotatable>
red

> <BIOSOLVEIT.TPSA>
72.7

> <BIOSOLVEIT.SEESAR_FAVORITE>
favorite

> <smc_score>
0.563

> <QED_score>
0.775

> <distance>
0.714

> <SimilarityPheSA_1>
0.768

> <Smiles>
CCn1ncc2c(NC(=O)C3Cc4cc(Cl)c(Cl)cc43)nncc21

> <Similarity_SkelSpheres>
0.622

> <Cluster No>
130.0

> <QueryID>
JAN-GHE-5a013bed-2

> <SimilarityPheSA>
0.7677

> <Postera series>
3-aminopyridine-like

> <PDB_code>
Mpro-x10466

> <Approach>
DGM_focussed_RL

> <ID>
20210618_264

> <SimilarityPheSA_2>
0.872

> <OPTIBRIUM.logD>
3.50162

> <OPTIBRIUM.BBB category>
-

> <OPTIBRIUM.logP>
3.50162

> <OPTIBRIUM.P-gp category>
no

> <OPTIBRIUM.logS>
0.907815

> <OPTIBRIUM.HIA category>
+

> <OPTIBRIUM.PPB90 category>
high

> <OPTIBRIUM.2D6 affinity category>
high

> <OPTIBRIUM.hERG pIC50>
5.26866

> <OPTIBRIUM.2C9 pKi>
5.46401

> <OPTIBRIUM.BBB log([brain]:[blood])>
-0.386586

> <OPTIBRIUM.logS @ pH7.4>
0.907815

$$$$
Compound 265_1_10
haSeeSAR  07122111353D 1   1.00000     0.00000     0
SeeSAR 11.0.2 hazemaj
 37 40  0  0  0  0            999 V2000
    9.3504   -0.1670   27.3589 Cl  0  0  0  0  0  0  0  0  0  0  0  0
    9.2373   -0.9290   25.7542 C   0  0  0  0  0  0  0  0  0  0  0  0
    8.7521   -2.2256   25.6399 C   0  0  0  0  0  0  0  0  0  0  0  0
    9.6336   -0.2359   24.6181 C   0  0  0  0  0  0  0  0  0  0  0  0
    8.2441   -3.1188   27.0912 Cl  0  0  0  0  0  0  0  0  0  0  0  0
    8.6487   -2.8579   24.4070 C   0  0  0  0  0  0  0  0  0  0  0  0
    9.5248   -0.8825   23.3930 C   0  0  0  0  0  0  0  0  0  0  0  0
    9.0439   -2.1583   23.2746 C   0  0  0  0  0  0  0  0  0  0  0  0
    9.7271   -0.8380   21.8896 C   0  0  1  0  0  0  0  0  0  0  0  0
    9.2043   -2.2453   21.7766 C   0  0  0  0  0  0  0  0  0  0  0  0
    8.7829    0.1319   21.1930 C   0  0  0  0  0  0  0  0  0  0  0  0
    9.2053    1.2112   20.7783 O   0  0  0  0  0  0  0  0  0  0  0  0
    7.5084   -0.1852   21.0335 N   0  0  0  0  0  0  0  0  0  0  0  0
    6.7963    0.3089   19.9332 C   0  0  0  0  0  0  0  0  0  0  0  0
    7.2263    0.0985   18.6793 N   0  0  0  0  0  0  0  0  0  0  0  0
    5.6230    1.0315   20.1248 C   0  0  0  0  0  0  0  0  0  0  0  0
    6.5849    0.5473   17.6504 N   0  0  0  0  0  0  0  0  0  0  0  0
    4.9359    1.5144   19.0399 C   0  0  0  0  0  0  0  0  0  0  0  0
    4.8813    1.4290   21.2633 C   0  0  0  0  0  0  0  0  0  0  0  0
    5.4518    1.2515   17.7742 C   0  0  0  0  0  0  0  0  0  0  0  0
    3.8419    2.1636   19.5330 N   0  0  0  0  0  0  0  0  0  0  0  0
    3.8312    2.0992   20.8440 N   0  0  0  0  0  0  0  0  0  0  0  0
    2.8162    2.8351   18.7199 C   0  0  0  0  0  0  0  0  0  0  0  0
    1.5380    2.9741   19.5305 C   0  0  0  0  0  0  0  0  0  0  0  0
    9.9857    0.6980   24.6796 H   0  0  0  0  0  0  0  0  0  0  0  0
    8.2990   -3.7922   24.3371 H   0  0  0  0  0  0  0  0  0  0  0  0
   10.6831   -0.7391   21.6136 H   0  0  0  0  0  0  0  0  0  0  0  0
    8.3528   -2.3439   21.2615 H   0  0  0  0  0  0  0  0  0  0  0  0
    9.8674   -2.9223   21.4573 H   0  0  0  0  0  0  0  0  0  0  0  0
    7.0535   -0.7776   21.6984 H   0  0  0  0  0  0  0  0  0  0  0  0
    5.1145    1.2346   22.2160 H   0  0  0  0  0  0  0  0  0  0  0  0
    4.9782    1.5870   16.9599 H   0  0  0  0  0  0  0  0  0  0  0  0
    2.6335    2.2931   17.8997 H   0  0  0  0  0  0  0  0  0  0  0  0
    3.1428    3.7422   18.4541 H   0  0  0  0  0  0  0  0  0  0  0  0
    0.8408    3.4307   18.9778 H   0  0  0  0  0  0  0  0  0  0  0  0
    1.2115    2.0671   19.7963 H   0  0  0  0  0  0  0  0  0  0  0  0
    1.7208    3.5162   20.3508 H   0  0  0  0  0  0  0  0  0  0  0  0
  1  2  1  0  0  0  0
  2  3  2  0  0  0  0
  2  4  1  0  0  0  0
  3  5  1  0  0  0  0
  3  6  1  0  0  0  0
  4  7  2  0  0  0  0
  6  8  2  0  0  0  0
  7  9  1  0  0  0  0
  8 10  1  0  0  0  0
  9 11  1  0  0  0  0
 11 12  2  0  0  0  0
 11 13  1  0  0  0  0
 13 14  1  0  0  0  0
 14 15  2  0  0  0  0
 14 16  1  0  0  0  0
 15 17  1  0  0  0  0
 16 18  2  0  0  0  0
 16 19  1  0  0  0  0
 17 20  2  0  0  0  0
 18 21  1  0  0  0  0
 19 22  2  0  0  0  0
 21 23  1  0  0  0  0
 23 24  1  0  0  0  0
  7  8  1  0  0  0  0
  9 10  1  0  0  0  0
 18 20  1  0  0  0  0
 21 22  1  0  0  0  0
  4 25  1  0  0  0  0
  6 26  1  0  0  0  0
  9 27  1  0  0  0  0
 10 28  1  0  0  0  0
 10 29  1  0  0  0  0
 13 30  1  0  0  0  0
 19 31  1  0  0  0  0
 20 32  1  0  0  0  0
 23 33  1  0  0  0  0
 23 34  1  0  0  0  0
 24 35  1  0  0  0  0
 24 36  1  0  0  0  0
 24 37  1  0  0  0  0
M  END
> <BIOSOLVEIT.HYDE_ESTIMATED_AFFINITY_LOWER_BOUNDARY [nM]>
188896.993452

> <BIOSOLVEIT.HYDE_ESTIMATED_AFFINITY_UPPER_BOUNDARY [nM]>
18768033.146857

> <BIOSOLVEIT.HYDE_LIGAND_EFFICIENCY range: ++, +, 0, -, -->
--

> <BIOSOLVEIT.HYDE_LIGAND_LIPOPHILIC_EFFICIENCY range: ++, +, 0, -, -->
--

> <BIOSOLVEIT.INTER_CLASH range: red, yellow, green>
green

> <BIOSOLVEIT.INTRA_CLASH range: red, yellow, green>
green

> <BIOSOLVEIT.LOGP>
3.4314

> <BIOSOLVEIT.MOLECULAR WEIGHT>
362.219

> <BIOSOLVEIT.MOLECULE_CHECKSUM>
LTE1LjU1NTM7MC42NDgxMzk=

> <BIOSOLVEIT.TORSION_QUALITY range: red, yellow, green, not rotatable>
red

> <BIOSOLVEIT.TPSA>
72.7

> <BIOSOLVEIT.SEESAR_FAVORITE>
favorite

> <smc_score>
0.563

> <QED_score>
0.775

> <distance>
0.714

> <SimilarityPheSA_1>
0.768

> <Smiles>
CCn1ncc2c(NC(=O)C3Cc4cc(Cl)c(Cl)cc43)nncc21

> <Similarity_SkelSpheres>
0.622

> <Cluster No>
130.0

> <QueryID>
JAN-GHE-5a013bed-2

> <SimilarityPheSA>
0.7677

> <Postera series>
3-aminopyridine-like

> <PDB_code>
Mpro-x10466

> <Approach>
DGM_focussed_RL

> <ID>
20210618_264

> <SimilarityPheSA_2>
0.872

> <OPTIBRIUM.logD>
3.50162

> <OPTIBRIUM.BBB category>
-

> <OPTIBRIUM.logP>
3.50162

> <OPTIBRIUM.P-gp category>
no

> <OPTIBRIUM.logS>
0.907815

> <OPTIBRIUM.HIA category>
+

> <OPTIBRIUM.PPB90 category>
high

> <OPTIBRIUM.2D6 affinity category>
high

> <OPTIBRIUM.hERG pIC50>
5.26866

> <OPTIBRIUM.2C9 pKi>
5.46401

> <OPTIBRIUM.BBB log([brain]:[blood])>
-0.386586

> <OPTIBRIUM.logS @ pH7.4>
0.907815

$$$$
Compound 672_1_005
haSeeSAR  07122111353D 1   1.00000     0.00000     0
SeeSAR 11.0.2 hazemaj
 50 53  0  0  0  0            999 V2000
    5.1177   -8.8433   22.3656 Cl  0  0  0  0  0  0  0  0  0  0  0  0
    5.6209   -7.4044   23.2866 C   0  0  0  0  0  0  0  0  0  0  0  0
    6.1589   -6.3188   22.6034 C   0  0  0  0  0  0  0  0  0  0  0  0
    5.4904   -7.3321   24.6694 C   0  0  0  0  0  0  0  0  0  0  0  0
    6.3453   -6.3569   20.8338 Cl  0  0  0  0  0  0  0  0  0  0  0  0
    6.5598   -5.1854   23.3033 C   0  0  0  0  0  0  0  0  0  0  0  0
    5.8689   -6.2089   25.3964 C   0  0  0  0  0  0  0  0  0  0  0  0
    6.4134   -5.1456   24.6875 C   0  0  0  0  0  0  0  0  0  0  0  0
    5.7127   -6.0979   26.7395 O   0  0  0  0  0  0  0  0  0  0  0  0
    6.8880   -3.8855   25.3959 C   0  0  1  0  0  0  0  0  0  0  0  0
    6.3731   -5.1286   27.5397 C   0  0  0  0  0  0  0  0  0  0  0  0
    6.2972   -3.8029   26.7987 C   0  0  0  0  0  0  0  0  0  0  0  0
    8.4012   -3.8477   25.5195 C   0  0  0  0  0  0  0  0  0  0  0  0
    8.8762   -2.4042   25.4884 C   0  0  0  0  0  0  0  0  0  0  0  0
    9.0055   -1.7760   26.5392 O   0  0  0  0  0  0  0  0  0  0  0  0
    9.1663   -1.7900   24.2667 N   0  0  0  0  0  0  0  0  0  0  0  0
    9.0455   -0.3580   23.9990 C   0  0  0  0  0  0  0  0  0  0  0  0
    9.6508   -2.4747   23.0711 C   0  0  0  0  0  0  0  0  0  0  0  0
    9.9854   -0.0993   22.8358 C   0  0  1  0  0  0  0  0  0  0  0  0
   10.6296   -1.4470   22.5495 C   0  0  0  0  0  0  0  0  0  0  0  0
    9.1800    0.4190   21.6553 C   0  0  0  0  0  0  0  0  0  0  0  0
    9.5003    1.4736   21.1072 O   0  0  0  0  0  0  0  0  0  0  0  0
    8.1348   -0.2635   21.2171 N   0  0  0  0  0  0  0  0  0  0  0  0
    7.3919    0.2145   20.1284 C   0  0  0  0  0  0  0  0  0  0  0  0
    7.7473   -0.0711   18.8137 C   0  0  0  0  0  0  0  0  0  0  0  0
    6.2646    0.9982   20.3473 C   0  0  0  0  0  0  0  0  0  0  0  0
    7.0236    0.3948   17.7842 N   0  0  0  0  0  0  0  0  0  0  0  0
    5.5250    1.4723   19.2676 C   0  0  0  0  0  0  0  0  0  0  0  0
    5.9313    1.1505   17.9763 C   0  0  0  0  0  0  0  0  0  0  0  0
    5.2151    1.6104   16.9558 F   0  0  0  0  0  0  0  0  0  0  0  0
    5.1104   -8.1168   25.1589 H   0  0  0  0  0  0  0  0  0  0  0  0
    6.9504   -4.4046   22.8157 H   0  0  0  0  0  0  0  0  0  0  0  0
    6.5874   -3.0884   24.8722 H   0  0  0  0  0  0  0  0  0  0  0  0
    7.3285   -5.3905   27.6758 H   0  0  0  0  0  0  0  0  0  0  0  0
    5.9191   -5.0510   28.4274 H   0  0  0  0  0  0  0  0  0  0  0  0
    5.3381   -3.5294   26.7275 H   0  0  0  0  0  0  0  0  0  0  0  0
    6.8023   -3.1146   27.3197 H   0  0  0  0  0  0  0  0  0  0  0  0
    8.8105   -4.3498   24.7578 H   0  0  0  0  0  0  0  0  0  0  0  0
    8.6757   -4.2703   26.3833 H   0  0  0  0  0  0  0  0  0  0  0  0
    9.3213    0.1743   24.7995 H   0  0  0  0  0  0  0  0  0  0  0  0
    8.1055   -0.1242   23.7509 H   0  0  0  0  0  0  0  0  0  0  0  0
    8.9127   -2.6472   22.4188 H   0  0  0  0  0  0  0  0  0  0  0  0
   10.1045   -3.3369   23.2967 H   0  0  0  0  0  0  0  0  0  0  0  0
   10.6827    0.5680   23.0973 H   0  0  0  0  0  0  0  0  0  0  0  0
   10.7720   -1.5657   21.5668 H   0  0  0  0  0  0  0  0  0  0  0  0
   11.5059   -1.5246   23.0251 H   0  0  0  0  0  0  0  0  0  0  0  0
    7.8745   -1.1202   21.6624 H   0  0  0  0  0  0  0  0  0  0  0  0
    8.5550   -0.6325   18.6333 H   0  0  0  0  0  0  0  0  0  0  0  0
    5.9849    1.2214   21.2811 H   0  0  0  0  0  0  0  0  0  0  0  0
    4.7129    2.0363   19.4178 H   0  0  0  0  0  0  0  0  0  0  0  0
  1  2  1  0  0  0  0
  2  3  2  0  0  0  0
  2  4  1  0  0  0  0
  3  5  1  0  0  0  0
  3  6  1  0  0  0  0
  4  7  2  0  0  0  0
  6  8  2  0  0  0  0
  7  9  1  0  0  0  0
  8 10  1  0  0  0  0
  9 11  1  0  0  0  0
 10 12  1  0  0  0  0
 10 13  1  0  0  0  0
 13 14  1  0  0  0  0
 14 15  2  0  0  0  0
 14 16  1  0  0  0  0
 16 17  1  0  0  0  0
 16 18  1  0  0  0  0
 17 19  1  0  0  0  0
 18 20  1  0  0  0  0
 19 21  1  0  0  0  0
 21 22  2  0  0  0  0
 21 23  1  0  0  0  0
 23 24  1  0  0  0  0
 24 25  2  0  0  0  0
 24 26  1  0  0  0  0
 25 27  1  0  0  0  0
 26 28  2  0  0  0  0
 27 29  2  0  0  0  0
 29 30  1  0  0  0  0
  7  8  1  0  0  0  0
 11 12  1  0  0  0  0
 19 20  1  0  0  0  0
 28 29  1  0  0  0  0
  4 31  1  0  0  0  0
  6 32  1  0  0  0  0
 10 33  1  0  0  0  0
 11 34  1  0  0  0  0
 11 35  1  0  0  0  0
 12 36  1  0  0  0  0
 12 37  1  0  0  0  0
 13 38  1  0  0  0  0
 13 39  1  0  0  0  0
 17 40  1  0  0  0  0
 17 41  1  0  0  0  0
 18 42  1  0  0  0  0
 18 43  1  0  0  0  0
 19 44  1  0  0  0  0
 20 45  1  0  0  0  0
 20 46  1  0  0  0  0
 23 47  1  0  0  0  0
 25 48  1  0  0  0  0
 26 49  1  0  0  0  0
 28 50  1  0  0  0  0
M  END
> <BIOSOLVEIT.HYDE_ESTIMATED_AFFINITY_LOWER_BOUNDARY [nM]>
193500.787036

> <BIOSOLVEIT.HYDE_ESTIMATED_AFFINITY_UPPER_BOUNDARY [nM]>
19225447.259210

> <BIOSOLVEIT.HYDE_LIGAND_EFFICIENCY range: ++, +, 0, -, -->
--

> <BIOSOLVEIT.HYDE_LIGAND_LIPOPHILIC_EFFICIENCY range: ++, +, 0, -, -->
--

> <BIOSOLVEIT.INTER_CLASH range: red, yellow, green>
yellow

> <BIOSOLVEIT.INTRA_CLASH range: red, yellow, green>
green

> <BIOSOLVEIT.LOGP>
4.2709

> <BIOSOLVEIT.MOLECULAR WEIGHT>
452.311

> <BIOSOLVEIT.MOLECULE_CHECKSUM>
LTE1LjQ5NTY7MC41MTY1MjI=

> <BIOSOLVEIT.TORSION_QUALITY range: red, yellow, green, not rotatable>
red

> <BIOSOLVEIT.TPSA>
71.53

> <BIOSOLVEIT.SEESAR_FAVORITE>
favorite

> <smc_score>
0.75

> <QED_score>
0.704

> <distance>
0.615

> <SimilarityPheSA_1>
0.645

> <Smiles>
O=C(Nc1ccc(F)nc1)C1CCN(C(=O)CC2CCOc3cc(Cl)c(Cl)cc32)C1

> <Similarity_SkelSpheres>
0.696

> <Cluster No>
374.0

> <QueryID>
MAR-UCB-f313ec4d-2

> <SimilarityPheSA>
0.6447

> <Postera series>
None

> <PDB_code>
Mpro-x11813

> <Approach>
DGM_focussed_RL

> <ID>
20210618_671

> <SimilarityPheSA_2>
0.633

> <OPTIBRIUM.logD>
3.09117

> <OPTIBRIUM.BBB category>
-

> <OPTIBRIUM.logP>
3.09117

> <OPTIBRIUM.P-gp category>
yes

> <OPTIBRIUM.logS>
1.04293

> <OPTIBRIUM.HIA category>
+

> <OPTIBRIUM.PPB90 category>
high

> <OPTIBRIUM.2D6 affinity category>
high

> <OPTIBRIUM.hERG pIC50>
5.23017

> <OPTIBRIUM.2C9 pKi>
5.85779

> <OPTIBRIUM.BBB log([brain]:[blood])>
-0.639822

> <OPTIBRIUM.logS @ pH7.4>
1.04293

$$$$
Compound 265_1_07
haSeeSAR  07122111353D 1   1.00000     0.00000     0
SeeSAR 11.0.2 hazemaj
 37 40  0  0  0  0            999 V2000
    9.5975    0.1014   27.3313 Cl  0  0  0  0  0  0  0  0  0  0  0  0
    9.3927   -0.7281   25.7696 C   0  0  0  0  0  0  0  0  0  0  0  0
    8.8637   -2.0121   25.7359 C   0  0  0  0  0  0  0  0  0  0  0  0
    9.7608   -0.1001   24.5872 C   0  0  0  0  0  0  0  0  0  0  0  0
    8.3913   -2.8220   27.2469 Cl  0  0  0  0  0  0  0  0  0  0  0  0
    8.6884   -2.6957   24.5390 C   0  0  0  0  0  0  0  0  0  0  0  0
    9.5799   -0.7974   23.3989 C   0  0  0  0  0  0  0  0  0  0  0  0
    9.0557   -2.0610   23.3600 C   0  0  0  0  0  0  0  0  0  0  0  0
    9.7189   -0.8274   21.8881 C   0  0  1  0  0  0  0  0  0  0  0  0
    9.1492   -2.2207   21.8623 C   0  0  0  0  0  0  0  0  0  0  0  0
    8.7758    0.1402   21.1870 C   0  0  0  0  0  0  0  0  0  0  0  0
    9.1998    1.2161   20.7652 O   0  0  0  0  0  0  0  0  0  0  0  0
    7.5006   -0.1753   21.0309 N   0  0  0  0  0  0  0  0  0  0  0  0
    6.7880    0.3136   19.9286 C   0  0  0  0  0  0  0  0  0  0  0  0
    7.2125    0.0892   18.6753 N   0  0  0  0  0  0  0  0  0  0  0  0
    5.6201    1.0455   20.1175 C   0  0  0  0  0  0  0  0  0  0  0  0
    6.5707    0.5331   17.6445 N   0  0  0  0  0  0  0  0  0  0  0  0
    4.9325    1.5230   19.0306 C   0  0  0  0  0  0  0  0  0  0  0  0
    4.8846    1.4579   21.2547 C   0  0  0  0  0  0  0  0  0  0  0  0
    5.4425    1.2456   17.7657 C   0  0  0  0  0  0  0  0  0  0  0  0
    3.8444    2.1837   19.5214 N   0  0  0  0  0  0  0  0  0  0  0  0
    3.8376    2.1312   20.8329 N   0  0  0  0  0  0  0  0  0  0  0  0
    2.8204    2.8547   18.7057 C   0  0  0  0  0  0  0  0  0  0  0  0
    1.5374    2.9858   19.5101 C   0  0  0  0  0  0  0  0  0  0  0  0
   10.1437    0.8237   24.5907 H   0  0  0  0  0  0  0  0  0  0  0  0
    8.3077   -3.6204   24.5271 H   0  0  0  0  0  0  0  0  0  0  0  0
   10.6648   -0.7720   21.5685 H   0  0  0  0  0  0  0  0  0  0  0  0
    8.2738   -2.3148   21.3881 H   0  0  0  0  0  0  0  0  0  0  0  0
    9.7771   -2.9325   21.5475 H   0  0  0  0  0  0  0  0  0  0  0  0
    7.0453   -0.7628   21.7000 H   0  0  0  0  0  0  0  0  0  0  0  0
    5.1198    1.2704   22.2085 H   0  0  0  0  0  0  0  0  0  0  0  0
    4.9684    1.5770   16.9499 H   0  0  0  0  0  0  0  0  0  0  0  0
    2.6439    2.3152   17.8824 H   0  0  0  0  0  0  0  0  0  0  0  0
    3.1448    3.7639   18.4451 H   0  0  0  0  0  0  0  0  0  0  0  0
    0.8413    3.4418   18.9556 H   0  0  0  0  0  0  0  0  0  0  0  0
    1.2130    2.0764   19.7706 H   0  0  0  0  0  0  0  0  0  0  0  0
    1.7139    3.5252   20.3335 H   0  0  0  0  0  0  0  0  0  0  0  0
  1  2  1  0  0  0  0
  2  3  2  0  0  0  0
  2  4  1  0  0  0  0
  3  5  1  0  0  0  0
  3  6  1  0  0  0  0
  4  7  2  0  0  0  0
  6  8  2  0  0  0  0
  7  9  1  0  0  0  0
  8 10  1  0  0  0  0
  9 11  1  0  0  0  0
 11 12  2  0  0  0  0
 11 13  1  0  0  0  0
 13 14  1  0  0  0  0
 14 15  2  0  0  0  0
 14 16  1  0  0  0  0
 15 17  1  0  0  0  0
 16 18  2  0  0  0  0
 16 19  1  0  0  0  0
 17 20  2  0  0  0  0
 18 21  1  0  0  0  0
 19 22  2  0  0  0  0
 21 23  1  0  0  0  0
 23 24  1  0  0  0  0
  7  8  1  0  0  0  0
  9 10  1  0  0  0  0
 18 20  1  0  0  0  0
 21 22  1  0  0  0  0
  4 25  1  0  0  0  0
  6 26  1  0  0  0  0
  9 27  1  0  0  0  0
 10 28  1  0  0  0  0
 10 29  1  0  0  0  0
 13 30  1  0  0  0  0
 19 31  1  0  0  0  0
 20 32  1  0  0  0  0
 23 33  1  0  0  0  0
 23 34  1  0  0  0  0
 24 35  1  0  0  0  0
 24 36  1  0  0  0  0
 24 37  1  0  0  0  0
M  END
> <BIOSOLVEIT.HYDE_ESTIMATED_AFFINITY_LOWER_BOUNDARY [nM]>
194345.677214

> <BIOSOLVEIT.HYDE_ESTIMATED_AFFINITY_UPPER_BOUNDARY [nM]>
19309392.093757

> <BIOSOLVEIT.HYDE_LIGAND_EFFICIENCY range: ++, +, 0, -, -->
--

> <BIOSOLVEIT.HYDE_LIGAND_LIPOPHILIC_EFFICIENCY range: ++, +, 0, -, -->
--

> <BIOSOLVEIT.INTER_CLASH range: red, yellow, green>
green

> <BIOSOLVEIT.INTRA_CLASH range: red, yellow, green>
green

> <BIOSOLVEIT.LOGP>
3.4314

> <BIOSOLVEIT.MOLECULAR WEIGHT>
362.219

> <BIOSOLVEIT.MOLECULE_CHECKSUM>
LTE1LjQ4NDg7MC42NDUyMDI=

> <BIOSOLVEIT.TORSION_QUALITY range: red, yellow, green, not rotatable>
red

> <BIOSOLVEIT.TPSA>
72.7

> <BIOSOLVEIT.SEESAR_FAVORITE>
favorite

> <smc_score>
0.563

> <QED_score>
0.775

> <distance>
0.714

> <SimilarityPheSA_1>
0.768

> <Smiles>
CCn1ncc2c(NC(=O)C3Cc4cc(Cl)c(Cl)cc43)nncc21

> <Similarity_SkelSpheres>
0.622

> <Cluster No>
130.0

> <QueryID>
JAN-GHE-5a013bed-2

> <SimilarityPheSA>
0.7677

> <Postera series>
3-aminopyridine-like

> <PDB_code>
Mpro-x10466

> <Approach>
DGM_focussed_RL

> <ID>
20210618_264

> <SimilarityPheSA_2>
0.872

> <OPTIBRIUM.logD>
3.50162

> <OPTIBRIUM.BBB category>
-

> <OPTIBRIUM.logP>
3.50162

> <OPTIBRIUM.P-gp category>
no

> <OPTIBRIUM.logS>
0.907815

> <OPTIBRIUM.HIA category>
+

> <OPTIBRIUM.PPB90 category>
high

> <OPTIBRIUM.2D6 affinity category>
high

> <OPTIBRIUM.hERG pIC50>
5.26866

> <OPTIBRIUM.2C9 pKi>
5.46401

> <OPTIBRIUM.BBB log([brain]:[blood])>
-0.386586

> <OPTIBRIUM.logS @ pH7.4>
0.907815

$$$$
Compound 265_1_02
haSeeSAR  07122111353D 1   1.00000     0.00000     0
SeeSAR 11.0.2 hazemaj
 37 40  0  0  0  0            999 V2000
    9.5997    0.1042   27.3344 Cl  0  0  0  0  0  0  0  0  0  0  0  0
    9.3959   -0.7258   25.7731 C   0  0  0  0  0  0  0  0  0  0  0  0
    8.8681   -2.0103   25.7394 C   0  0  0  0  0  0  0  0  0  0  0  0
    9.7641   -0.0979   24.5906 C   0  0  0  0  0  0  0  0  0  0  0  0
    8.3957   -2.8201   27.2504 Cl  0  0  0  0  0  0  0  0  0  0  0  0
    8.6936   -2.6943   24.5426 C   0  0  0  0  0  0  0  0  0  0  0  0
    9.5842   -0.7956   23.4024 C   0  0  0  0  0  0  0  0  0  0  0  0
    9.0610   -2.0597   23.3636 C   0  0  0  0  0  0  0  0  0  0  0  0
    9.7236   -0.8258   21.8916 C   0  0  1  0  0  0  0  0  0  0  0  0
    9.1549   -2.2196   21.8660 C   0  0  0  0  0  0  0  0  0  0  0  0
    8.7801    0.1407   21.1899 C   0  0  0  0  0  0  0  0  0  0  0  0
    9.2035    1.2168   20.7676 O   0  0  0  0  0  0  0  0  0  0  0  0
    7.5050   -0.1755   21.0338 N   0  0  0  0  0  0  0  0  0  0  0  0
    6.7923    0.3124   19.9313 C   0  0  0  0  0  0  0  0  0  0  0  0
    7.2169    0.0873   18.6780 N   0  0  0  0  0  0  0  0  0  0  0  0
    5.6240    1.0439   20.1197 C   0  0  0  0  0  0  0  0  0  0  0  0
    6.5748    0.5303   17.6471 N   0  0  0  0  0  0  0  0  0  0  0  0
    4.9362    1.5205   19.0324 C   0  0  0  0  0  0  0  0  0  0  0  0
    4.8884    1.4567   21.2567 C   0  0  0  0  0  0  0  0  0  0  0  0
    5.4464    1.2424   17.7676 C   0  0  0  0  0  0  0  0  0  0  0  0
    3.8479    2.1810   19.5229 N   0  0  0  0  0  0  0  0  0  0  0  0
    3.8410    2.1293   20.8345 N   0  0  0  0  0  0  0  0  0  0  0  0
    2.8235    2.8510   18.7067 C   0  0  0  0  0  0  0  0  0  0  0  0
    1.5411    2.9838   19.5119 C   0  0  0  0  0  0  0  0  0  0  0  0
   10.1461    0.8263   24.5939 H   0  0  0  0  0  0  0  0  0  0  0  0
    8.3137   -3.6192   24.5308 H   0  0  0  0  0  0  0  0  0  0  0  0
   10.6697   -0.7699   21.5723 H   0  0  0  0  0  0  0  0  0  0  0  0
    8.2799   -2.3145   21.3914 H   0  0  0  0  0  0  0  0  0  0  0  0
    9.7836   -2.9309   21.5516 H   0  0  0  0  0  0  0  0  0  0  0  0
    7.0500   -0.7630   21.7031 H   0  0  0  0  0  0  0  0  0  0  0  0
    5.1236    1.2700   22.2105 H   0  0  0  0  0  0  0  0  0  0  0  0
    4.9721    1.5731   16.9517 H   0  0  0  0  0  0  0  0  0  0  0  0
    2.6465    2.3105   17.8844 H   0  0  0  0  0  0  0  0  0  0  0  0
    3.1482    3.7599   18.4447 H   0  0  0  0  0  0  0  0  0  0  0  0
    0.8449    3.4393   18.9571 H   0  0  0  0  0  0  0  0  0  0  0  0
    1.2165    2.0750   19.7739 H   0  0  0  0  0  0  0  0  0  0  0  0
    1.7184    3.5244   20.3343 H   0  0  0  0  0  0  0  0  0  0  0  0
  1  2  1  0  0  0  0
  2  3  2  0  0  0  0
  2  4  1  0  0  0  0
  3  5  1  0  0  0  0
  3  6  1  0  0  0  0
  4  7  2  0  0  0  0
  6  8  2  0  0  0  0
  7  9  1  0  0  0  0
  8 10  1  0  0  0  0
  9 11  1  0  0  0  0
 11 12  2  0  0  0  0
 11 13  1  0  0  0  0
 13 14  1  0  0  0  0
 14 15  2  0  0  0  0
 14 16  1  0  0  0  0
 15 17  1  0  0  0  0
 16 18  2  0  0  0  0
 16 19  1  0  0  0  0
 17 20  2  0  0  0  0
 18 21  1  0  0  0  0
 19 22  2  0  0  0  0
 21 23  1  0  0  0  0
 23 24  1  0  0  0  0
  7  8  1  0  0  0  0
  9 10  1  0  0  0  0
 18 20  1  0  0  0  0
 21 22  1  0  0  0  0
  4 25  1  0  0  0  0
  6 26  1  0  0  0  0
  9 27  1  0  0  0  0
 10 28  1  0  0  0  0
 10 29  1  0  0  0  0
 13 30  1  0  0  0  0
 19 31  1  0  0  0  0
 20 32  1  0  0  0  0
 23 33  1  0  0  0  0
 23 34  1  0  0  0  0
 24 35  1  0  0  0  0
 24 36  1  0  0  0  0
 24 37  1  0  0  0  0
M  END
> <BIOSOLVEIT.HYDE_ESTIMATED_AFFINITY_LOWER_BOUNDARY [nM]>
194836.598317

> <BIOSOLVEIT.HYDE_ESTIMATED_AFFINITY_UPPER_BOUNDARY [nM]>
19358168.007921

> <BIOSOLVEIT.HYDE_LIGAND_EFFICIENCY range: ++, +, 0, -, -->
--

> <BIOSOLVEIT.HYDE_LIGAND_LIPOPHILIC_EFFICIENCY range: ++, +, 0, -, -->
--

> <BIOSOLVEIT.INTER_CLASH range: red, yellow, green>
green

> <BIOSOLVEIT.INTRA_CLASH range: red, yellow, green>
green

> <BIOSOLVEIT.LOGP>
3.4314

> <BIOSOLVEIT.MOLECULAR WEIGHT>
362.219

> <BIOSOLVEIT.MOLECULE_CHECKSUM>
LTE1LjQ3ODY7MC42NDQ5NDE=

> <BIOSOLVEIT.TORSION_QUALITY range: red, yellow, green, not rotatable>
red

> <BIOSOLVEIT.TPSA>
72.7

> <BIOSOLVEIT.SEESAR_FAVORITE>
favorite

> <smc_score>
0.563

> <QED_score>
0.775

> <distance>
0.714

> <SimilarityPheSA_1>
0.768

> <Smiles>
CCn1ncc2c(NC(=O)C3Cc4cc(Cl)c(Cl)cc43)nncc21

> <Similarity_SkelSpheres>
0.622

> <Cluster No>
130.0

> <QueryID>
JAN-GHE-5a013bed-2

> <SimilarityPheSA>
0.7677

> <Postera series>
3-aminopyridine-like

> <PDB_code>
Mpro-x10466

> <Approach>
DGM_focussed_RL

> <ID>
20210618_264

> <SimilarityPheSA_2>
0.872

> <OPTIBRIUM.logD>
3.50162

> <OPTIBRIUM.BBB category>
-

> <OPTIBRIUM.logP>
3.50162

> <OPTIBRIUM.P-gp category>
no

> <OPTIBRIUM.logS>
0.907815

> <OPTIBRIUM.HIA category>
+

> <OPTIBRIUM.PPB90 category>
high

> <OPTIBRIUM.2D6 affinity category>
high

> <OPTIBRIUM.hERG pIC50>
5.26866

> <OPTIBRIUM.2C9 pKi>
5.46401

> <OPTIBRIUM.BBB log([brain]:[blood])>
-0.386586

> <OPTIBRIUM.logS @ pH7.4>
0.907815

$$$$
Compound 527_1_2
haSeeSAR  07122111353D 1   1.00000     0.00000     0
SeeSAR 11.0.2 hazemaj
 35 37  0  0  0  0            999 V2000
   12.9423    2.0030   23.1878 Cl  0  0  0  0  0  0  0  0  0  0  0  0
   11.7293    0.7426   22.8592 C   0  0  0  0  0  0  0  0  0  0  0  0
   12.1444   -0.5484   22.5507 C   0  0  0  0  0  0  0  0  0  0  0  0
   10.3753    1.0565   22.9133 C   0  0  0  0  0  0  0  0  0  0  0  0
   13.4418   -0.8360   22.5020 F   0  0  0  0  0  0  0  0  0  0  0  0
   11.2098   -1.5453   22.2916 C   0  0  0  0  0  0  0  0  0  0  0  0
    9.4400    0.0604   22.6544 C   0  0  0  0  0  0  0  0  0  0  0  0
    9.8563   -1.2300   22.3462 C   0  0  0  0  0  0  0  0  0  0  0  0
    7.9591    0.3983   22.7117 C   0  0  0  0  0  0  0  0  0  0  0  0
    8.6586   -2.5042   22.0140 Cl  0  0  0  0  0  0  0  0  0  0  0  0
    7.4840    0.8294   21.3338 C   0  0  0  0  0  0  0  0  0  0  0  0
    8.1670    1.6016   20.6610 O   0  0  0  0  0  0  0  0  0  0  0  0
    6.3366    0.3746   20.8574 N   0  0  0  0  0  0  0  0  0  0  0  0
    6.0867    0.4106   19.4791 C   0  0  0  0  0  0  0  0  0  0  0  0
    5.0401    1.0223   18.8619 N   0  0  0  0  0  0  0  0  0  0  0  0
    6.8480   -0.1602   18.5042 C   0  0  0  0  0  0  0  0  0  0  0  0
    5.1757    0.8141   17.5750 N   0  0  0  0  0  0  0  0  0  0  0  0
    3.9494    1.7641   19.5150 C   0  0  0  0  0  0  0  0  0  0  0  0
    6.2201    0.1267   17.3294 N   0  0  0  0  0  0  0  0  0  0  0  0
    4.5314    2.7154   20.5487 C   0  0  0  0  0  0  0  0  0  0  0  0
    4.0249    2.3901   21.9236 C   0  0  0  0  0  0  0  0  0  0  0  0
    3.4827    3.5809   21.1862 C   0  0  0  0  0  0  0  0  0  0  0  0
   10.0786    1.9853   23.1353 H   0  0  0  0  0  0  0  0  0  0  0  0
   11.5063   -2.4742   22.0697 H   0  0  0  0  0  0  0  0  0  0  0  0
    7.8122    1.1428   23.3630 H   0  0  0  0  0  0  0  0  0  0  0  0
    7.4445   -0.4075   23.0048 H   0  0  0  0  0  0  0  0  0  0  0  0
    5.6477    0.0052   21.4810 H   0  0  0  0  0  0  0  0  0  0  0  0
    7.6926   -0.6816   18.6256 H   0  0  0  0  0  0  0  0  0  0  0  0
    3.3311    1.1200   19.9654 H   0  0  0  0  0  0  0  0  0  0  0  0
    3.4439    2.2867   18.8283 H   0  0  0  0  0  0  0  0  0  0  0  0
    5.4605    3.0662   20.4325 H   0  0  0  0  0  0  0  0  0  0  0  0
    4.6172    2.5215   22.7186 H   0  0  0  0  0  0  0  0  0  0  0  0
    3.4485    1.5856   22.0667 H   0  0  0  0  0  0  0  0  0  0  0  0
    2.5453    3.5692   20.8382 H   0  0  0  0  0  0  0  0  0  0  0  0
    3.7141    4.5050   21.4900 H   0  0  0  0  0  0  0  0  0  0  0  0
  1  2  1  0  0  0  0
  2  3  2  0  0  0  0
  2  4  1  0  0  0  0
  3  5  1  0  0  0  0
  3  6  1  0  0  0  0
  4  7  2  0  0  0  0
  6  8  2  0  0  0  0
  7  9  1  0  0  0  0
  8 10  1  0  0  0  0
  9 11  1  0  0  0  0
 11 12  2  0  0  0  0
 11 13  1  0  0  0  0
 13 14  1  0  0  0  0
 14 15  1  0  0  0  0
 14 16  2  0  0  0  0
 15 17  1  0  0  0  0
 15 18  1  0  0  0  0
 16 19  1  0  0  0  0
 18 20  1  0  0  0  0
 20 21  1  0  0  0  0
 20 22  1  0  0  0  0
  7  8  1  0  0  0  0
 17 19  2  0  0  0  0
 21 22  1  0  0  0  0
  4 23  1  0  0  0  0
  6 24  1  0  0  0  0
  9 25  1  0  0  0  0
  9 26  1  0  0  0  0
 13 27  1  0  0  0  0
 16 28  1  0  0  0  0
 18 29  1  0  0  0  0
 18 30  1  0  0  0  0
 20 31  1  0  0  0  0
 21 32  1  0  0  0  0
 21 33  1  0  0  0  0
 22 34  1  0  0  0  0
 22 35  1  0  0  0  0
M  END
> <BIOSOLVEIT.HYDE_ESTIMATED_AFFINITY_LOWER_BOUNDARY [nM]>
195380.243044

> <BIOSOLVEIT.HYDE_ESTIMATED_AFFINITY_UPPER_BOUNDARY [nM]>
19412182.325865

> <BIOSOLVEIT.HYDE_LIGAND_EFFICIENCY range: ++, +, 0, -, -->
--

> <BIOSOLVEIT.HYDE_LIGAND_LIPOPHILIC_EFFICIENCY range: ++, +, 0, -, -->
--

> <BIOSOLVEIT.INTER_CLASH range: red, yellow, green>
green

> <BIOSOLVEIT.INTRA_CLASH range: red, yellow, green>
green

> <BIOSOLVEIT.LOGP>
3.3152

> <BIOSOLVEIT.MOLECULAR WEIGHT>
343.188

> <BIOSOLVEIT.MOLECULE_CHECKSUM>
LTE1LjQ3MTc7MC43MDMyNTk=

> <BIOSOLVEIT.TORSION_QUALITY range: red, yellow, green, not rotatable>
red

> <BIOSOLVEIT.TPSA>
59.81

> <BIOSOLVEIT.SEESAR_FAVORITE>
favorite

> <smc_score>
0.75

> <QED_score>
0.848

> <distance>
0.667

> <SimilarityPheSA_1>
0.761

> <Smiles>
O=C(Cc1cc(Cl)c(F)cc1Cl)Nc1cnnn1CC1CC1

> <Similarity_SkelSpheres>
0.587

> <Cluster No>
282.0

> <QueryID>
JAG-UCB-a3ef7265-20

> <SimilarityPheSA>
0.7609

> <Postera series>
3-aminopyridine-like

> <PDB_code>
Mpro-x10324

> <Approach>
DGM_focussed_RL

> <ID>
20210618_526

> <SimilarityPheSA_2>
0.811

> <OPTIBRIUM.logD>
3.47777

> <OPTIBRIUM.BBB category>
-

> <OPTIBRIUM.logP>
3.47777

> <OPTIBRIUM.P-gp category>
no

> <OPTIBRIUM.logS>
1.72641

> <OPTIBRIUM.HIA category>
+

> <OPTIBRIUM.PPB90 category>
high

> <OPTIBRIUM.2D6 affinity category>
high

> <OPTIBRIUM.hERG pIC50>
5.13412

> <OPTIBRIUM.2C9 pKi>
5.03421

> <OPTIBRIUM.BBB log([brain]:[blood])>
0.00208259

> <OPTIBRIUM.logS @ pH7.4>
1.72641

$$$$
Compound 266_1_03
haSeeSAR  07122111353D 1   1.00000     0.00000     0
SeeSAR 11.0.2 hazemaj
 44 47  0  0  0  0            999 V2000
    9.5808    0.1014   27.3633 Cl  0  0  0  0  0  0  0  0  0  0  0  0
    9.3968   -0.7268   25.7984 C   0  0  0  0  0  0  0  0  0  0  0  0
    8.8794   -2.0152   25.7574 C   0  0  0  0  0  0  0  0  0  0  0  0
    9.7699   -0.0932   24.6204 C   0  0  0  0  0  0  0  0  0  0  0  0
    8.4008   -2.8322   27.2626 Cl  0  0  0  0  0  0  0  0  0  0  0  0
    8.7206   -2.6980   24.5578 C   0  0  0  0  0  0  0  0  0  0  0  0
    9.6056   -0.7898   23.4292 C   0  0  0  0  0  0  0  0  0  0  0  0
    9.0928   -2.0578   23.3832 C   0  0  0  0  0  0  0  0  0  0  0  0
    9.7581   -0.8154   21.9196 C   0  0  1  0  0  0  0  0  0  0  0  0
    9.2007   -2.2136   21.8862 C   0  0  0  0  0  0  0  0  0  0  0  0
    8.8128    0.1452   21.2121 C   0  0  0  0  0  0  0  0  0  0  0  0
    9.2338    1.2204   20.7851 O   0  0  0  0  0  0  0  0  0  0  0  0
    7.5388   -0.1752   21.0559 N   0  0  0  0  0  0  0  0  0  0  0  0
    6.8261    0.3054   19.9501 C   0  0  0  0  0  0  0  0  0  0  0  0
    7.2578    0.0834   18.6988 N   0  0  0  0  0  0  0  0  0  0  0  0
    5.6506    1.0267   20.1333 C   0  0  0  0  0  0  0  0  0  0  0  0
    6.6160    0.5198   17.6649 N   0  0  0  0  0  0  0  0  0  0  0  0
    4.9629    1.4962   19.0429 C   0  0  0  0  0  0  0  0  0  0  0  0
    4.9067    1.4337   21.2670 C   0  0  0  0  0  0  0  0  0  0  0  0
    5.4806    1.2218   17.7805 C   0  0  0  0  0  0  0  0  0  0  0  0
    3.8667    2.1473   19.5285 N   0  0  0  0  0  0  0  0  0  0  0  0
    3.8551    2.0964   20.8401 N   0  0  0  0  0  0  0  0  0  0  0  0
    2.8397    2.8074   18.7077 C   0  0  0  0  0  0  0  0  0  0  0  0
    1.9866    3.7051   19.5890 C   0  0  0  0  0  0  0  0  0  0  0  0
    1.0082    4.4827   18.7238 C   0  0  0  0  0  0  0  0  0  0  0  0
    1.6628    4.9144   17.5400 O   0  0  0  0  0  0  0  0  0  0  0  0
    0.6930    5.2767   16.5681 C   0  0  0  0  0  0  0  0  0  0  0  0
   10.1446    0.8338   24.6290 H   0  0  0  0  0  0  0  0  0  0  0  0
    8.3480   -3.6258   24.5408 H   0  0  0  0  0  0  0  0  0  0  0  0
   10.7062   -0.7513   21.6084 H   0  0  0  0  0  0  0  0  0  0  0  0
    8.3304   -2.3143   21.4039 H   0  0  0  0  0  0  0  0  0  0  0  0
    9.8375   -2.9193   21.5755 H   0  0  0  0  0  0  0  0  0  0  0  0
    7.0845   -0.7605   21.7275 H   0  0  0  0  0  0  0  0  0  0  0  0
    5.1397    1.2498   22.2219 H   0  0  0  0  0  0  0  0  0  0  0  0
    5.0067    1.5476   16.9623 H   0  0  0  0  0  0  0  0  0  0  0  0
    2.2607    2.1148   18.2777 H   0  0  0  0  0  0  0  0  0  0  0  0
    3.2820    3.3583   17.9999 H   0  0  0  0  0  0  0  0  0  0  0  0
    2.5757    4.3445   20.0830 H   0  0  0  0  0  0  0  0  0  0  0  0
    1.4798    3.1447   20.2442 H   0  0  0  0  0  0  0  0  0  0  0  0
    0.6753    5.2784   19.2298 H   0  0  0  0  0  0  0  0  0  0  0  0
    0.2364    3.8945   18.4824 H   0  0  0  0  0  0  0  0  0  0  0  0
    1.1540    5.5809   15.7344 H   0  0  0  0  0  0  0  0  0  0  0  0
    0.1169    4.4860   16.3611 H   0  0  0  0  0  0  0  0  0  0  0  0
    0.1250    6.0186   16.9245 H   0  0  0  0  0  0  0  0  0  0  0  0
  1  2  1  0  0  0  0
  2  3  2  0  0  0  0
  2  4  1  0  0  0  0
  3  5  1  0  0  0  0
  3  6  1  0  0  0  0
  4  7  2  0  0  0  0
  6  8  2  0  0  0  0
  7  9  1  0  0  0  0
  8 10  1  0  0  0  0
  9 11  1  0  0  0  0
 11 12  2  0  0  0  0
 11 13  1  0  0  0  0
 13 14  1  0  0  0  0
 14 15  2  0  0  0  0
 14 16  1  0  0  0  0
 15 17  1  0  0  0  0
 16 18  2  0  0  0  0
 16 19  1  0  0  0  0
 17 20  2  0  0  0  0
 18 21  1  0  0  0  0
 19 22  2  0  0  0  0
 21 23  1  0  0  0  0
 23 24  1  0  0  0  0
 24 25  1  0  0  0  0
 25 26  1  0  0  0  0
 26 27  1  0  0  0  0
  7  8  1  0  0  0  0
  9 10  1  0  0  0  0
 18 20  1  0  0  0  0
 21 22  1  0  0  0  0
  4 28  1  0  0  0  0
  6 29  1  0  0  0  0
  9 30  1  0  0  0  0
 10 31  1  0  0  0  0
 10 32  1  0  0  0  0
 13 33  1  0  0  0  0
 19 34  1  0  0  0  0
 20 35  1  0  0  0  0
 23 36  1  0  0  0  0
 23 37  1  0  0  0  0
 24 38  1  0  0  0  0
 24 39  1  0  0  0  0
 25 40  1  0  0  0  0
 25 41  1  0  0  0  0
 27 42  1  0  0  0  0
 27 43  1  0  0  0  0
 27 44  1  0  0  0  0
M  END
> <BIOSOLVEIT.HYDE_ESTIMATED_AFFINITY_LOWER_BOUNDARY [nM]>
196423.474378

> <BIOSOLVEIT.HYDE_ESTIMATED_AFFINITY_UPPER_BOUNDARY [nM]>
19515833.526930

> <BIOSOLVEIT.HYDE_LIGAND_EFFICIENCY range: ++, +, 0, -, -->
--

> <BIOSOLVEIT.HYDE_LIGAND_LIPOPHILIC_EFFICIENCY range: ++, +, 0, -, -->
--

> <BIOSOLVEIT.INTER_CLASH range: red, yellow, green>
green

> <BIOSOLVEIT.INTRA_CLASH range: red, yellow, green>
green

> <BIOSOLVEIT.LOGP>
3.448

> <BIOSOLVEIT.MOLECULAR WEIGHT>
406.271

> <BIOSOLVEIT.MOLECULE_CHECKSUM>
LTE1LjQ1ODU7MC41NzI1Mzc=

> <BIOSOLVEIT.TORSION_QUALITY range: red, yellow, green, not rotatable>
red

> <BIOSOLVEIT.TPSA>
81.93

> <BIOSOLVEIT.SEESAR_FAVORITE>
favorite

> <smc_score>
0.563

> <QED_score>
0.635

> <distance>
0.682

> <SimilarityPheSA_1>
0.677

> <Smiles>
COCCCn1ncc2c(NC(=O)C3Cc4cc(Cl)c(Cl)cc43)nncc21

> <Similarity_SkelSpheres>
0.649

> <Cluster No>
130.0

> <QueryID>
JAN-GHE-5a013bed-2

> <SimilarityPheSA>
0.6768

> <Postera series>
3-aminopyridine-like

> <PDB_code>
Mpro-x10466

> <Approach>
DGM_focussed_RL

> <ID>
20210618_265

> <SimilarityPheSA_2>
0.772

> <OPTIBRIUM.logD>
3.07063

> <OPTIBRIUM.BBB category>
-

> <OPTIBRIUM.logP>
3.07063

> <OPTIBRIUM.P-gp category>
yes

> <OPTIBRIUM.logS>
1.42191

> <OPTIBRIUM.HIA category>
+

> <OPTIBRIUM.PPB90 category>
high

> <OPTIBRIUM.2D6 affinity category>
high

> <OPTIBRIUM.hERG pIC50>
5.37141

> <OPTIBRIUM.2C9 pKi>
5.37379

> <OPTIBRIUM.BBB log([brain]:[blood])>
-0.506323

> <OPTIBRIUM.logS @ pH7.4>
1.42191

$$$$
Compound 1_1_02
haSeeSAR  07122111353D 1   1.00000     0.00000     0
SeeSAR 11.0.2 hazemaj
 46 49  0  0  0  0            999 V2000
    6.3786    1.2794   27.0541 Cl  0  0  0  0  0  0  0  0  0  0  0  0
    7.8383    0.6581   26.2477 C   0  0  0  0  0  0  0  0  0  0  0  0
    8.3897   -0.5476   26.6712 C   0  0  0  0  0  0  0  0  0  0  0  0
    8.4317    1.3602   25.2066 C   0  0  0  0  0  0  0  0  0  0  0  0
    7.6444   -1.4591   28.0065 Cl  0  0  0  0  0  0  0  0  0  0  0  0
    9.5280   -1.0692   26.0625 C   0  0  0  0  0  0  0  0  0  0  0  0
    9.5666    0.8331   24.6050 C   0  0  0  0  0  0  0  0  0  0  0  0
   10.0937   -0.3643   25.0131 C   0  0  0  0  0  0  0  0  0  0  0  0
   10.3908    1.4068   23.4704 C   0  0  2  0  0  0  0  0  0  0  0  0
   11.2925   -0.6641   24.1367 C   0  0  0  0  0  0  0  0  0  0  0  0
    9.7722    1.0875   22.1180 C   0  0  0  0  0  0  0  0  0  0  0  0
   11.7212    0.7137   23.6703 C   0  0  0  0  0  0  0  0  0  0  0  0
    9.7036    1.9592   21.2514 O   0  0  0  0  0  0  0  0  0  0  0  0
    9.3079   -0.1267   21.8731 N   0  0  0  0  0  0  0  0  0  0  0  0
    8.7100   -0.4354   20.5661 C   0  0  0  0  0  0  0  0  0  0  0  0
    7.2299   -0.7325   20.7436 C   0  0  0  0  0  0  0  0  0  0  0  0
    6.4339   -0.0058   19.6683 C   0  0  0  0  0  0  0  0  0  0  0  0
    5.4446    0.9663   19.8955 C   0  0  0  0  0  0  0  0  0  0  0  0
    6.7689   -0.3896   18.3826 C   0  0  0  0  0  0  0  0  0  0  0  0
    5.0183    1.4365   21.1522 C   0  0  0  0  0  0  0  0  0  0  0  0
    4.8210    1.5187   18.7783 C   0  0  0  0  0  0  0  0  0  0  0  0
    6.1386    0.1756   17.3437 N   0  0  0  0  0  0  0  0  0  0  0  0
    5.5696    0.9670   22.4925 C   0  0  0  0  0  0  0  0  0  0  0  0
    4.0304    2.4037   21.3044 C   0  0  0  0  0  0  0  0  0  0  0  0
    5.1862    1.1072   17.5015 C   0  0  0  0  0  0  0  0  0  0  0  0
    3.8307    2.4871   18.9061 C   0  0  0  0  0  0  0  0  0  0  0  0
    6.0002    0.6003   23.5395 C   0  0  0  0  0  0  0  0  0  0  0  0
    3.4345    2.9290   20.1633 C   0  0  0  0  0  0  0  0  0  0  0  0
    8.0483    2.2299   24.8957 H   0  0  0  0  0  0  0  0  0  0  0  0
    9.9272   -1.9310   26.3753 H   0  0  0  0  0  0  0  0  0  0  0  0
   10.4939    2.3953   23.5809 H   0  0  0  0  0  0  0  0  0  0  0  0
   11.0368   -1.2430   23.3624 H   0  0  0  0  0  0  0  0  0  0  0  0
   12.0190   -1.1093   24.6601 H   0  0  0  0  0  0  0  0  0  0  0  0
   12.2717    1.1773   24.3646 H   0  0  0  0  0  0  0  0  0  0  0  0
   12.2368    0.6635   22.8149 H   0  0  0  0  0  0  0  0  0  0  0  0
    9.3637   -0.8348   22.5771 H   0  0  0  0  0  0  0  0  0  0  0  0
    9.1652   -1.2334   20.1713 H   0  0  0  0  0  0  0  0  0  0  0  0
    8.8217    0.3484   19.9551 H   0  0  0  0  0  0  0  0  0  0  0  0
    6.9332   -0.4204   21.6461 H   0  0  0  0  0  0  0  0  0  0  0  0
    7.0758   -1.7173   20.6640 H   0  0  0  0  0  0  0  0  0  0  0  0
    7.4742   -1.0817   18.2296 H   0  0  0  0  0  0  0  0  0  0  0  0
    3.7548    2.7143   22.2141 H   0  0  0  0  0  0  0  0  0  0  0  0
    4.7390    1.5055   16.7007 H   0  0  0  0  0  0  0  0  0  0  0  0
    3.4007    2.8682   18.0877 H   0  0  0  0  0  0  0  0  0  0  0  0
    6.3622    0.2920   24.4192 H   0  0  0  0  0  0  0  0  0  0  0  0
    2.7211    3.6248   20.2467 H   0  0  0  0  0  0  0  0  0  0  0  0
  1  2  1  0  0  0  0
  2  3  2  0  0  0  0
  2  4  1  0  0  0  0
  3  5  1  0  0  0  0
  3  6  1  0  0  0  0
  4  7  2  0  0  0  0
  6  8  2  0  0  0  0
  7  9  1  0  0  0  0
  8 10  1  0  0  0  0
  9 11  1  0  0  0  0
  9 12  1  0  0  0  0
 11 13  2  0  0  0  0
 11 14  1  0  0  0  0
 14 15  1  0  0  0  0
 15 16  1  0  0  0  0
 16 17  1  0  0  0  0
 17 18  1  0  0  0  0
 17 19  2  0  0  0  0
 18 20  2  0  0  0  0
 18 21  1  0  0  0  0
 19 22  1  0  0  0  0
 20 23  1  0  0  0  0
 20 24  1  0  0  0  0
 21 25  1  0  0  0  0
 21 26  2  0  0  0  0
 23 27  3  0  0  0  0
 24 28  2  0  0  0  0
  7  8  1  0  0  0  0
 10 12  1  0  0  0  0
 22 25  2  0  0  0  0
 26 28  1  0  0  0  0
  4 29  1  0  0  0  0
  6 30  1  0  0  0  0
  9 31  1  0  0  0  0
 10 32  1  0  0  0  0
 10 33  1  0  0  0  0
 12 34  1  0  0  0  0
 12 35  1  0  0  0  0
 14 36  1  0  0  0  0
 15 37  1  0  0  0  0
 15 38  1  0  0  0  0
 16 39  1  0  0  0  0
 16 40  1  0  0  0  0
 19 41  1  0  0  0  0
 24 42  1  0  0  0  0
 25 43  1  0  0  0  0
 26 44  1  0  0  0  0
 27 45  1  0  0  0  0
 28 46  1  0  0  0  0
M  END
> <BIOSOLVEIT.HYDE_ESTIMATED_AFFINITY_LOWER_BOUNDARY [nM]>
196666.778888

> <BIOSOLVEIT.HYDE_ESTIMATED_AFFINITY_UPPER_BOUNDARY [nM]>
19540007.268523

> <BIOSOLVEIT.HYDE_LIGAND_EFFICIENCY range: ++, +, 0, -, -->
--

> <BIOSOLVEIT.HYDE_LIGAND_LIPOPHILIC_EFFICIENCY range: ++, +, 0, -, -->
--

> <BIOSOLVEIT.INTER_CLASH range: red, yellow, green>
green

> <BIOSOLVEIT.INTRA_CLASH range: red, yellow, green>
yellow

> <BIOSOLVEIT.LOGP>
4.9116

> <BIOSOLVEIT.MOLECULAR WEIGHT>
409.314

> <BIOSOLVEIT.MOLECULE_CHECKSUM>
LTE1LjQ1NTQ7MC41NTE5Nzk=

> <BIOSOLVEIT.TORSION_QUALITY range: red, yellow, green, not rotatable>
yellow

> <BIOSOLVEIT.TPSA>
41.99

> <BIOSOLVEIT.SEESAR_FAVORITE>
favorite

> <smc_score>
0.688

> <QED_score>
0.622

> <distance>
0.641

> <SimilarityPheSA_1>
0.708

> <Smiles>
C#Cc1cccc2cncc(CCNC(=O)C3CCc4cc(Cl)c(Cl)cc43)c12

> <Similarity_SkelSpheres>
0.725

> <Cluster No>
1.0

> <QueryID>
ADA-UCB-6c2cb422-1

> <SimilarityPheSA>
0.7084

> <Postera series>
3-aminopyridine-like

> <PDB_code>
Mpro-x10959

> <Approach>
DGM_focussed_RL

> <ID>
20210618_0

> <SimilarityPheSA_2>
0.723

> <OPTIBRIUM.logD>
4.83063

> <OPTIBRIUM.BBB category>
+

> <OPTIBRIUM.logP>
4.83063

> <OPTIBRIUM.P-gp category>
no

> <OPTIBRIUM.logS>
-0.41578

> <OPTIBRIUM.HIA category>
+

> <OPTIBRIUM.PPB90 category>
high

> <OPTIBRIUM.2D6 affinity category>
high

> <OPTIBRIUM.hERG pIC50>
5.10131

> <OPTIBRIUM.2C9 pKi>
5.78721

> <OPTIBRIUM.BBB log([brain]:[blood])>
-0.22871

> <OPTIBRIUM.logS @ pH7.4>
-0.41578

$$$$
Compound 265_1_05
haSeeSAR  07122111353D 1   1.00000     0.00000     0
SeeSAR 11.0.2 hazemaj
 37 40  0  0  0  0            999 V2000
    9.5586    0.2473   27.4820 Cl  0  0  0  0  0  0  0  0  0  0  0  0
    9.4462   -0.5931   25.9168 C   0  0  0  0  0  0  0  0  0  0  0  0
    8.9781   -1.9000   25.8688 C   0  0  0  0  0  0  0  0  0  0  0  0
    9.8260    0.0494   24.7459 C   0  0  0  0  0  0  0  0  0  0  0  0
    8.4911   -2.7285   27.3650 Cl  0  0  0  0  0  0  0  0  0  0  0  0
    8.8759   -2.5927   24.6686 C   0  0  0  0  0  0  0  0  0  0  0  0
    9.7186   -0.6572   23.5542 C   0  0  0  0  0  0  0  0  0  0  0  0
    9.2544   -1.9436   23.5010 C   0  0  0  0  0  0  0  0  0  0  0  0
    9.9111   -0.6830   22.0492 C   0  0  1  0  0  0  0  0  0  0  0  0
    9.4070   -2.1010   22.0079 C   0  0  0  0  0  0  0  0  0  0  0  0
    8.9496    0.2392   21.3128 C   0  0  0  0  0  0  0  0  0  0  0  0
    9.3517    1.3088   20.8550 O   0  0  0  0  0  0  0  0  0  0  0  0
    7.6818   -0.1087   21.1651 N   0  0  0  0  0  0  0  0  0  0  0  0
    6.9622    0.3263   20.0450 C   0  0  0  0  0  0  0  0  0  0  0  0
    7.3960    0.0694   18.8011 N   0  0  0  0  0  0  0  0  0  0  0  0
    5.7773    1.0375   20.2058 C   0  0  0  0  0  0  0  0  0  0  0  0
    6.7478    0.4635   17.7542 N   0  0  0  0  0  0  0  0  0  0  0  0
    5.0828    1.4622   19.1016 C   0  0  0  0  0  0  0  0  0  0  0  0
    5.0288    1.4712   21.3265 C   0  0  0  0  0  0  0  0  0  0  0  0
    5.6033    1.1539   17.8481 C   0  0  0  0  0  0  0  0  0  0  0  0
    3.9783    2.1142   19.5668 N   0  0  0  0  0  0  0  0  0  0  0  0
    3.9682    2.1058   20.8794 N   0  0  0  0  0  0  0  0  0  0  0  0
    2.9422    2.7337   18.7260 C   0  0  0  0  0  0  0  0  0  0  0  0
    1.6809    2.9429   19.5480 C   0  0  0  0  0  0  0  0  0  0  0  0
   10.1658    0.9898   24.7598 H   0  0  0  0  0  0  0  0  0  0  0  0
    8.5385   -3.5339   24.6464 H   0  0  0  0  0  0  0  0  0  0  0  0
   10.8640   -0.5848   21.7623 H   0  0  0  0  0  0  0  0  0  0  0  0
    8.5538   -2.2359   21.5040 H   0  0  0  0  0  0  0  0  0  0  0  0
   10.0773   -2.7837   21.7173 H   0  0  0  0  0  0  0  0  0  0  0  0
    7.2372   -0.6823   21.8531 H   0  0  0  0  0  0  0  0  0  0  0  0
    5.2648    1.3215   22.2867 H   0  0  0  0  0  0  0  0  0  0  0  0
    5.1247    1.4466   17.0203 H   0  0  0  0  0  0  0  0  0  0  0  0
    2.7396    2.1349   17.9513 H   0  0  0  0  0  0  0  0  0  0  0  0
    3.2703    3.6160   18.3885 H   0  0  0  0  0  0  0  0  0  0  0  0
    0.9766    3.3640   18.9765 H   0  0  0  0  0  0  0  0  0  0  0  0
    1.3528    2.0605   19.8855 H   0  0  0  0  0  0  0  0  0  0  0  0
    1.8835    3.5417   20.3229 H   0  0  0  0  0  0  0  0  0  0  0  0
  1  2  1  0  0  0  0
  2  3  2  0  0  0  0
  2  4  1  0  0  0  0
  3  5  1  0  0  0  0
  3  6  1  0  0  0  0
  4  7  2  0  0  0  0
  6  8  2  0  0  0  0
  7  9  1  0  0  0  0
  8 10  1  0  0  0  0
  9 11  1  0  0  0  0
 11 12  2  0  0  0  0
 11 13  1  0  0  0  0
 13 14  1  0  0  0  0
 14 15  2  0  0  0  0
 14 16  1  0  0  0  0
 15 17  1  0  0  0  0
 16 18  2  0  0  0  0
 16 19  1  0  0  0  0
 17 20  2  0  0  0  0
 18 21  1  0  0  0  0
 19 22  2  0  0  0  0
 21 23  1  0  0  0  0
 23 24  1  0  0  0  0
  7  8  1  0  0  0  0
  9 10  1  0  0  0  0
 18 20  1  0  0  0  0
 21 22  1  0  0  0  0
  4 25  1  0  0  0  0
  6 26  1  0  0  0  0
  9 27  1  0  0  0  0
 10 28  1  0  0  0  0
 10 29  1  0  0  0  0
 13 30  1  0  0  0  0
 19 31  1  0  0  0  0
 20 32  1  0  0  0  0
 23 33  1  0  0  0  0
 23 34  1  0  0  0  0
 24 35  1  0  0  0  0
 24 36  1  0  0  0  0
 24 37  1  0  0  0  0
M  END
> <BIOSOLVEIT.HYDE_ESTIMATED_AFFINITY_LOWER_BOUNDARY [nM]>
198343.358237

> <BIOSOLVEIT.HYDE_ESTIMATED_AFFINITY_UPPER_BOUNDARY [nM]>
19706585.339614

> <BIOSOLVEIT.HYDE_LIGAND_EFFICIENCY range: ++, +, 0, -, -->
--

> <BIOSOLVEIT.HYDE_LIGAND_LIPOPHILIC_EFFICIENCY range: ++, +, 0, -, -->
--

> <BIOSOLVEIT.INTER_CLASH range: red, yellow, green>
green

> <BIOSOLVEIT.INTRA_CLASH range: red, yellow, green>
green

> <BIOSOLVEIT.LOGP>
3.4314

> <BIOSOLVEIT.MOLECULAR WEIGHT>
362.219

> <BIOSOLVEIT.MOLECULE_CHECKSUM>
LTE1LjQzNDQ7MC42NDMwOTk=

> <BIOSOLVEIT.TORSION_QUALITY range: red, yellow, green, not rotatable>
red

> <BIOSOLVEIT.TPSA>
72.7

> <BIOSOLVEIT.SEESAR_FAVORITE>
favorite

> <smc_score>
0.563

> <QED_score>
0.775

> <distance>
0.714

> <SimilarityPheSA_1>
0.768

> <Smiles>
CCn1ncc2c(NC(=O)C3Cc4cc(Cl)c(Cl)cc43)nncc21

> <Similarity_SkelSpheres>
0.622

> <Cluster No>
130.0

> <QueryID>
JAN-GHE-5a013bed-2

> <SimilarityPheSA>
0.7677

> <Postera series>
3-aminopyridine-like

> <PDB_code>
Mpro-x10466

> <Approach>
DGM_focussed_RL

> <ID>
20210618_264

> <SimilarityPheSA_2>
0.872

> <OPTIBRIUM.logD>
3.50162

> <OPTIBRIUM.BBB category>
-

> <OPTIBRIUM.logP>
3.50162

> <OPTIBRIUM.P-gp category>
no

> <OPTIBRIUM.logS>
0.907815

> <OPTIBRIUM.HIA category>
+

> <OPTIBRIUM.PPB90 category>
high

> <OPTIBRIUM.2D6 affinity category>
high

> <OPTIBRIUM.hERG pIC50>
5.26866

> <OPTIBRIUM.2C9 pKi>
5.46401

> <OPTIBRIUM.BBB log([brain]:[blood])>
-0.386586

> <OPTIBRIUM.logS @ pH7.4>
0.907815

$$$$
Compound 265_1_06
haSeeSAR  07122111353D 1   1.00000     0.00000     0
SeeSAR 11.0.2 hazemaj
 37 40  0  0  0  0            999 V2000
    9.5950    0.0926   27.3386 Cl  0  0  0  0  0  0  0  0  0  0  0  0
    9.3969   -0.7339   25.7745 C   0  0  0  0  0  0  0  0  0  0  0  0
    8.8728   -2.0197   25.7364 C   0  0  0  0  0  0  0  0  0  0  0  0
    9.7658   -0.1017   24.5945 C   0  0  0  0  0  0  0  0  0  0  0  0
    8.3997   -2.8349   27.2443 Cl  0  0  0  0  0  0  0  0  0  0  0  0
    8.7030   -2.7011   24.5375 C   0  0  0  0  0  0  0  0  0  0  0  0
    9.5904   -0.7968   23.4040 C   0  0  0  0  0  0  0  0  0  0  0  0
    9.0709   -2.0623   23.3608 C   0  0  0  0  0  0  0  0  0  0  0  0
    9.7331   -0.8226   21.8935 C   0  0  1  0  0  0  0  0  0  0  0  0
    9.1685   -2.2180   21.8630 C   0  0  0  0  0  0  0  0  0  0  0  0
    8.7881    0.1430   21.1923 C   0  0  0  0  0  0  0  0  0  0  0  0
    9.2104    1.2192   20.7692 O   0  0  0  0  0  0  0  0  0  0  0  0
    7.5131   -0.1741   21.0378 N   0  0  0  0  0  0  0  0  0  0  0  0
    6.7989    0.3128   19.9357 C   0  0  0  0  0  0  0  0  0  0  0  0
    7.2259    0.0931   18.6823 N   0  0  0  0  0  0  0  0  0  0  0  0
    5.6269    1.0380   20.1249 C   0  0  0  0  0  0  0  0  0  0  0  0
    6.5826    0.5353   17.6518 N   0  0  0  0  0  0  0  0  0  0  0  0
    4.9376    1.5137   19.0382 C   0  0  0  0  0  0  0  0  0  0  0  0
    4.8881    1.4443   21.2621 C   0  0  0  0  0  0  0  0  0  0  0  0
    5.4503    1.2414   17.7731 C   0  0  0  0  0  0  0  0  0  0  0  0
    3.8454    2.1676   19.5291 N   0  0  0  0  0  0  0  0  0  0  0  0
    3.8377    2.1125   20.8406 N   0  0  0  0  0  0  0  0  0  0  0  0
    2.8186    2.8344   18.7135 C   0  0  0  0  0  0  0  0  0  0  0  0
    1.5413    2.9775   19.5249 C   0  0  0  0  0  0  0  0  0  0  0  0
   10.1451    0.8236   24.6011 H   0  0  0  0  0  0  0  0  0  0  0  0
    8.3257   -3.6271   24.5224 H   0  0  0  0  0  0  0  0  0  0  0  0
   10.6796   -0.7631   21.5763 H   0  0  0  0  0  0  0  0  0  0  0  0
    8.2947   -2.3142   21.3864 H   0  0  0  0  0  0  0  0  0  0  0  0
    9.7998   -2.9267   21.5481 H   0  0  0  0  0  0  0  0  0  0  0  0
    7.0592   -0.7616   21.7078 H   0  0  0  0  0  0  0  0  0  0  0  0
    5.1233    1.2564   22.2157 H   0  0  0  0  0  0  0  0  0  0  0  0
    4.9752    1.5716   16.9576 H   0  0  0  0  0  0  0  0  0  0  0  0
    2.6351    2.2877   17.8965 H   0  0  0  0  0  0  0  0  0  0  0  0
    3.1445    3.7400   18.4423 H   0  0  0  0  0  0  0  0  0  0  0  0
    0.8433    3.4307   18.9704 H   0  0  0  0  0  0  0  0  0  0  0  0
    1.2153    2.0719   19.7960 H   0  0  0  0  0  0  0  0  0  0  0  0
    1.7248    3.5242   20.3418 H   0  0  0  0  0  0  0  0  0  0  0  0
  1  2  1  0  0  0  0
  2  3  2  0  0  0  0
  2  4  1  0  0  0  0
  3  5  1  0  0  0  0
  3  6  1  0  0  0  0
  4  7  2  0  0  0  0
  6  8  2  0  0  0  0
  7  9  1  0  0  0  0
  8 10  1  0  0  0  0
  9 11  1  0  0  0  0
 11 12  2  0  0  0  0
 11 13  1  0  0  0  0
 13 14  1  0  0  0  0
 14 15  2  0  0  0  0
 14 16  1  0  0  0  0
 15 17  1  0  0  0  0
 16 18  2  0  0  0  0
 16 19  1  0  0  0  0
 17 20  2  0  0  0  0
 18 21  1  0  0  0  0
 19 22  2  0  0  0  0
 21 23  1  0  0  0  0
 23 24  1  0  0  0  0
  7  8  1  0  0  0  0
  9 10  1  0  0  0  0
 18 20  1  0  0  0  0
 21 22  1  0  0  0  0
  4 25  1  0  0  0  0
  6 26  1  0  0  0  0
  9 27  1  0  0  0  0
 10 28  1  0  0  0  0
 10 29  1  0  0  0  0
 13 30  1  0  0  0  0
 19 31  1  0  0  0  0
 20 32  1  0  0  0  0
 23 33  1  0  0  0  0
 23 34  1  0  0  0  0
 24 35  1  0  0  0  0
 24 36  1  0  0  0  0
 24 37  1  0  0  0  0
M  END
> <BIOSOLVEIT.HYDE_ESTIMATED_AFFINITY_LOWER_BOUNDARY [nM]>
202556.024722

> <BIOSOLVEIT.HYDE_ESTIMATED_AFFINITY_UPPER_BOUNDARY [nM]>
20125138.662130

> <BIOSOLVEIT.HYDE_LIGAND_EFFICIENCY range: ++, +, 0, -, -->
--

> <BIOSOLVEIT.HYDE_LIGAND_LIPOPHILIC_EFFICIENCY range: ++, +, 0, -, -->
--

> <BIOSOLVEIT.INTER_CLASH range: red, yellow, green>
green

> <BIOSOLVEIT.INTRA_CLASH range: red, yellow, green>
green

> <BIOSOLVEIT.LOGP>
3.4314

> <BIOSOLVEIT.MOLECULAR WEIGHT>
362.219

> <BIOSOLVEIT.MOLECULE_CHECKSUM>
LTE1LjM4MjM7MC42NDA5Mjg=

> <BIOSOLVEIT.TORSION_QUALITY range: red, yellow, green, not rotatable>
red

> <BIOSOLVEIT.TPSA>
72.7

> <BIOSOLVEIT.SEESAR_FAVORITE>
favorite

> <smc_score>
0.563

> <QED_score>
0.775

> <distance>
0.714

> <SimilarityPheSA_1>
0.768

> <Smiles>
CCn1ncc2c(NC(=O)C3Cc4cc(Cl)c(Cl)cc43)nncc21

> <Similarity_SkelSpheres>
0.622

> <Cluster No>
130.0

> <QueryID>
JAN-GHE-5a013bed-2

> <SimilarityPheSA>
0.7677

> <Postera series>
3-aminopyridine-like

> <PDB_code>
Mpro-x10466

> <Approach>
DGM_focussed_RL

> <ID>
20210618_264

> <SimilarityPheSA_2>
0.872

> <OPTIBRIUM.logD>
3.50162

> <OPTIBRIUM.BBB category>
-

> <OPTIBRIUM.logP>
3.50162

> <OPTIBRIUM.P-gp category>
no

> <OPTIBRIUM.logS>
0.907815

> <OPTIBRIUM.HIA category>
+

> <OPTIBRIUM.PPB90 category>
high

> <OPTIBRIUM.2D6 affinity category>
high

> <OPTIBRIUM.hERG pIC50>
5.26866

> <OPTIBRIUM.2C9 pKi>
5.46401

> <OPTIBRIUM.BBB log([brain]:[blood])>
-0.386586

> <OPTIBRIUM.logS @ pH7.4>
0.907815

$$$$
Compound 265_1_04
haSeeSAR  07122111353D 1   1.00000     0.00000     0
SeeSAR 11.0.2 hazemaj
 37 40  0  0  0  0            999 V2000
    9.6002    0.0941   27.3343 Cl  0  0  0  0  0  0  0  0  0  0  0  0
    9.3971   -0.7338   25.7716 C   0  0  0  0  0  0  0  0  0  0  0  0
    8.8699   -2.0184   25.7360 C   0  0  0  0  0  0  0  0  0  0  0  0
    9.7650   -0.1039   24.5901 C   0  0  0  0  0  0  0  0  0  0  0  0
    8.3979   -2.8308   27.2457 Cl  0  0  0  0  0  0  0  0  0  0  0  0
    8.6960   -2.7008   24.5382 C   0  0  0  0  0  0  0  0  0  0  0  0
    9.5856   -0.8000   23.4008 C   0  0  0  0  0  0  0  0  0  0  0  0
    9.0630   -2.0642   23.3602 C   0  0  0  0  0  0  0  0  0  0  0  0
    9.7252   -0.8278   21.8899 C   0  0  1  0  0  0  0  0  0  0  0  0
    9.1573   -2.2219   21.8622 C   0  0  0  0  0  0  0  0  0  0  0  0
    8.7812    0.1393   21.1897 C   0  0  0  0  0  0  0  0  0  0  0  0
    9.2043    1.2156   20.7678 O   0  0  0  0  0  0  0  0  0  0  0  0
    7.5060   -0.1768   21.0344 N   0  0  0  0  0  0  0  0  0  0  0  0
    6.7924    0.3119   19.9327 C   0  0  0  0  0  0  0  0  0  0  0  0
    7.2193    0.0927   18.6791 N   0  0  0  0  0  0  0  0  0  0  0  0
    5.6210    1.0381   20.1222 C   0  0  0  0  0  0  0  0  0  0  0  0
    6.5766    0.5366   17.6489 N   0  0  0  0  0  0  0  0  0  0  0  0
    4.9325    1.5155   19.0358 C   0  0  0  0  0  0  0  0  0  0  0  0
    4.8825    1.4440   21.2598 C   0  0  0  0  0  0  0  0  0  0  0  0
    5.4450    1.2437   17.7707 C   0  0  0  0  0  0  0  0  0  0  0  0
    3.8408    2.1699   19.5273 N   0  0  0  0  0  0  0  0  0  0  0  0
    3.8328    2.1137   20.8387 N   0  0  0  0  0  0  0  0  0  0  0  0
    2.8147    2.8384   18.7122 C   0  0  0  0  0  0  0  0  0  0  0  0
    1.5365    2.9794   19.5225 C   0  0  0  0  0  0  0  0  0  0  0  0
   10.1466    0.8205   24.5949 H   0  0  0  0  0  0  0  0  0  0  0  0
    8.3165   -3.6259   24.5250 H   0  0  0  0  0  0  0  0  0  0  0  0
   10.6712   -0.7709   21.5709 H   0  0  0  0  0  0  0  0  0  0  0  0
    8.2823   -2.3166   21.3875 H   0  0  0  0  0  0  0  0  0  0  0  0
    9.7862   -2.9324   21.5469 H   0  0  0  0  0  0  0  0  0  0  0  0
    7.0515   -0.7646   21.7037 H   0  0  0  0  0  0  0  0  0  0  0  0
    5.1174    1.2551   22.2132 H   0  0  0  0  0  0  0  0  0  0  0  0
    4.9704    1.5751   16.9554 H   0  0  0  0  0  0  0  0  0  0  0  0
    2.6322    2.2937   17.8937 H   0  0  0  0  0  0  0  0  0  0  0  0
    3.1408    3.7448   18.4435 H   0  0  0  0  0  0  0  0  0  0  0  0
    0.8390    3.4337   18.9685 H   0  0  0  0  0  0  0  0  0  0  0  0
    1.2105    2.0729   19.7912 H   0  0  0  0  0  0  0  0  0  0  0  0
    1.7191    3.5241   20.3410 H   0  0  0  0  0  0  0  0  0  0  0  0
  1  2  1  0  0  0  0
  2  3  2  0  0  0  0
  2  4  1  0  0  0  0
  3  5  1  0  0  0  0
  3  6  1  0  0  0  0
  4  7  2  0  0  0  0
  6  8  2  0  0  0  0
  7  9  1  0  0  0  0
  8 10  1  0  0  0  0
  9 11  1  0  0  0  0
 11 12  2  0  0  0  0
 11 13  1  0  0  0  0
 13 14  1  0  0  0  0
 14 15  2  0  0  0  0
 14 16  1  0  0  0  0
 15 17  1  0  0  0  0
 16 18  2  0  0  0  0
 16 19  1  0  0  0  0
 17 20  2  0  0  0  0
 18 21  1  0  0  0  0
 19 22  2  0  0  0  0
 21 23  1  0  0  0  0
 23 24  1  0  0  0  0
  7  8  1  0  0  0  0
  9 10  1  0  0  0  0
 18 20  1  0  0  0  0
 21 22  1  0  0  0  0
  4 25  1  0  0  0  0
  6 26  1  0  0  0  0
  9 27  1  0  0  0  0
 10 28  1  0  0  0  0
 10 29  1  0  0  0  0
 13 30  1  0  0  0  0
 19 31  1  0  0  0  0
 20 32  1  0  0  0  0
 23 33  1  0  0  0  0
 23 34  1  0  0  0  0
 24 35  1  0  0  0  0
 24 36  1  0  0  0  0
 24 37  1  0  0  0  0
M  END
> <BIOSOLVEIT.HYDE_ESTIMATED_AFFINITY_LOWER_BOUNDARY [nM]>
205054.513688

> <BIOSOLVEIT.HYDE_ESTIMATED_AFFINITY_UPPER_BOUNDARY [nM]>
20373378.313136

> <BIOSOLVEIT.HYDE_LIGAND_EFFICIENCY range: ++, +, 0, -, -->
--

> <BIOSOLVEIT.HYDE_LIGAND_LIPOPHILIC_EFFICIENCY range: ++, +, 0, -, -->
--

> <BIOSOLVEIT.INTER_CLASH range: red, yellow, green>
green

> <BIOSOLVEIT.INTRA_CLASH range: red, yellow, green>
green

> <BIOSOLVEIT.LOGP>
3.4314

> <BIOSOLVEIT.MOLECULAR WEIGHT>
362.219

> <BIOSOLVEIT.MOLECULE_CHECKSUM>
LTE1LjM1MTk7MC42Mzk2NjI=

> <BIOSOLVEIT.TORSION_QUALITY range: red, yellow, green, not rotatable>
red

> <BIOSOLVEIT.TPSA>
72.7

> <BIOSOLVEIT.SEESAR_FAVORITE>
favorite

> <smc_score>
0.563

> <QED_score>
0.775

> <distance>
0.714

> <SimilarityPheSA_1>
0.768

> <Smiles>
CCn1ncc2c(NC(=O)C3Cc4cc(Cl)c(Cl)cc43)nncc21

> <Similarity_SkelSpheres>
0.622

> <Cluster No>
130.0

> <QueryID>
JAN-GHE-5a013bed-2

> <SimilarityPheSA>
0.7677

> <Postera series>
3-aminopyridine-like

> <PDB_code>
Mpro-x10466

> <Approach>
DGM_focussed_RL

> <ID>
20210618_264

> <SimilarityPheSA_2>
0.872

> <OPTIBRIUM.logD>
3.50162

> <OPTIBRIUM.BBB category>
-

> <OPTIBRIUM.logP>
3.50162

> <OPTIBRIUM.P-gp category>
no

> <OPTIBRIUM.logS>
0.907815

> <OPTIBRIUM.HIA category>
+

> <OPTIBRIUM.PPB90 category>
high

> <OPTIBRIUM.2D6 affinity category>
high

> <OPTIBRIUM.hERG pIC50>
5.26866

> <OPTIBRIUM.2C9 pKi>
5.46401

> <OPTIBRIUM.BBB log([brain]:[blood])>
-0.386586

> <OPTIBRIUM.logS @ pH7.4>
0.907815

$$$$
Compound 1_1_08
haSeeSAR  07122111353D 1   1.00000     0.00000     0
SeeSAR 11.0.2 hazemaj
 46 49  0  0  0  0            999 V2000
    6.3749    1.2968   27.0488 Cl  0  0  0  0  0  0  0  0  0  0  0  0
    7.8356    0.6702   26.2485 C   0  0  0  0  0  0  0  0  0  0  0  0
    8.3868   -0.5322   26.6809 C   0  0  0  0  0  0  0  0  0  0  0  0
    8.4300    1.3654   25.2031 C   0  0  0  0  0  0  0  0  0  0  0  0
    7.6402   -1.4346   28.0218 Cl  0  0  0  0  0  0  0  0  0  0  0  0
    9.5259   -1.0578   26.0773 C   0  0  0  0  0  0  0  0  0  0  0  0
    9.5657    0.8344   24.6065 C   0  0  0  0  0  0  0  0  0  0  0  0
   10.0927   -0.3600   25.0236 C   0  0  0  0  0  0  0  0  0  0  0  0
   10.3912    1.4003   23.4689 C   0  0  2  0  0  0  0  0  0  0  0  0
   11.2925   -0.6657   24.1507 C   0  0  0  0  0  0  0  0  0  0  0  0
    9.7741    1.0715   22.1181 C   0  0  0  0  0  0  0  0  0  0  0  0
   11.7214    0.7089   23.6751 C   0  0  0  0  0  0  0  0  0  0  0  0
    9.7045    1.9376   21.2460 O   0  0  0  0  0  0  0  0  0  0  0  0
    9.3123   -0.1453   21.8804 N   0  0  0  0  0  0  0  0  0  0  0  0
    8.7160   -0.4631   20.5749 C   0  0  0  0  0  0  0  0  0  0  0  0
    7.2361   -0.7606   20.7529 C   0  0  0  0  0  0  0  0  0  0  0  0
    6.4395   -0.0375   19.6747 C   0  0  0  0  0  0  0  0  0  0  0  0
    5.4530    0.9390   19.9052 C   0  0  0  0  0  0  0  0  0  0  0  0
    6.7902   -0.4464   18.3928 C   0  0  0  0  0  0  0  0  0  0  0  0
    5.0301    1.4160   21.1605 C   0  0  0  0  0  0  0  0  0  0  0  0
    4.8404    1.4791   18.7778 C   0  0  0  0  0  0  0  0  0  0  0  0
    6.1631    0.1131   17.3483 N   0  0  0  0  0  0  0  0  0  0  0  0
    5.5812    0.9497   22.5017 C   0  0  0  0  0  0  0  0  0  0  0  0
    4.0432    2.3851   21.2960 C   0  0  0  0  0  0  0  0  0  0  0  0
    5.2139    1.0480   17.5090 C   0  0  0  0  0  0  0  0  0  0  0  0
    3.8504    2.4498   18.8876 C   0  0  0  0  0  0  0  0  0  0  0  0
    6.0117    0.5855   23.5496 C   0  0  0  0  0  0  0  0  0  0  0  0
    3.4571    2.8974   20.1440 C   0  0  0  0  0  0  0  0  0  0  0  0
    8.0468    2.2327   24.8857 H   0  0  0  0  0  0  0  0  0  0  0  0
    9.9250   -1.9173   26.3965 H   0  0  0  0  0  0  0  0  0  0  0  0
   10.4938    2.3896   23.5726 H   0  0  0  0  0  0  0  0  0  0  0  0
   11.0379   -1.2501   23.3801 H   0  0  0  0  0  0  0  0  0  0  0  0
   12.0185   -1.1071   24.6780 H   0  0  0  0  0  0  0  0  0  0  0  0
   12.2710    1.1775   24.3668 H   0  0  0  0  0  0  0  0  0  0  0  0
   12.2381    0.6530   22.8207 H   0  0  0  0  0  0  0  0  0  0  0  0
    9.3689   -0.8488   22.5888 H   0  0  0  0  0  0  0  0  0  0  0  0
    9.1724   -1.2632   20.1858 H   0  0  0  0  0  0  0  0  0  0  0  0
    8.8274    0.3167   19.9588 H   0  0  0  0  0  0  0  0  0  0  0  0
    6.9388   -0.4460   21.6544 H   0  0  0  0  0  0  0  0  0  0  0  0
    7.0825   -1.7459   20.6763 H   0  0  0  0  0  0  0  0  0  0  0  0
    7.4945   -1.1425   18.2532 H   0  0  0  0  0  0  0  0  0  0  0  0
    3.7613    2.7062   22.2002 H   0  0  0  0  0  0  0  0  0  0  0  0
    4.7684    1.4406   16.7045 H   0  0  0  0  0  0  0  0  0  0  0  0
    3.4226    2.8248   18.0653 H   0  0  0  0  0  0  0  0  0  0  0  0
    6.3736    0.2794   24.4301 H   0  0  0  0  0  0  0  0  0  0  0  0
    2.7450    3.5955   20.2197 H   0  0  0  0  0  0  0  0  0  0  0  0
  1  2  1  0  0  0  0
  2  3  2  0  0  0  0
  2  4  1  0  0  0  0
  3  5  1  0  0  0  0
  3  6  1  0  0  0  0
  4  7  2  0  0  0  0
  6  8  2  0  0  0  0
  7  9  1  0  0  0  0
  8 10  1  0  0  0  0
  9 11  1  0  0  0  0
  9 12  1  0  0  0  0
 11 13  2  0  0  0  0
 11 14  1  0  0  0  0
 14 15  1  0  0  0  0
 15 16  1  0  0  0  0
 16 17  1  0  0  0  0
 17 18  1  0  0  0  0
 17 19  2  0  0  0  0
 18 20  2  0  0  0  0
 18 21  1  0  0  0  0
 19 22  1  0  0  0  0
 20 23  1  0  0  0  0
 20 24  1  0  0  0  0
 21 25  1  0  0  0  0
 21 26  2  0  0  0  0
 23 27  3  0  0  0  0
 24 28  2  0  0  0  0
  7  8  1  0  0  0  0
 10 12  1  0  0  0  0
 22 25  2  0  0  0  0
 26 28  1  0  0  0  0
  4 29  1  0  0  0  0
  6 30  1  0  0  0  0
  9 31  1  0  0  0  0
 10 32  1  0  0  0  0
 10 33  1  0  0  0  0
 12 34  1  0  0  0  0
 12 35  1  0  0  0  0
 14 36  1  0  0  0  0
 15 37  1  0  0  0  0
 15 38  1  0  0  0  0
 16 39  1  0  0  0  0
 16 40  1  0  0  0  0
 19 41  1  0  0  0  0
 24 42  1  0  0  0  0
 25 43  1  0  0  0  0
 26 44  1  0  0  0  0
 27 45  1  0  0  0  0
 28 46  1  0  0  0  0
M  END
> <BIOSOLVEIT.HYDE_ESTIMATED_AFFINITY_LOWER_BOUNDARY [nM]>
209058.740047

> <BIOSOLVEIT.HYDE_ESTIMATED_AFFINITY_UPPER_BOUNDARY [nM]>
20771221.876797

> <BIOSOLVEIT.HYDE_LIGAND_EFFICIENCY range: ++, +, 0, -, -->
--

> <BIOSOLVEIT.HYDE_LIGAND_LIPOPHILIC_EFFICIENCY range: ++, +, 0, -, -->
--

> <BIOSOLVEIT.INTER_CLASH range: red, yellow, green>
green

> <BIOSOLVEIT.INTRA_CLASH range: red, yellow, green>
yellow

> <BIOSOLVEIT.LOGP>
4.9116

> <BIOSOLVEIT.MOLECULAR WEIGHT>
409.314

> <BIOSOLVEIT.MOLECULE_CHECKSUM>
LTE1LjMwMzk7MC41NDY1Njk=

> <BIOSOLVEIT.TORSION_QUALITY range: red, yellow, green, not rotatable>
yellow

> <BIOSOLVEIT.TPSA>
41.99

> <BIOSOLVEIT.SEESAR_FAVORITE>
favorite

> <smc_score>
0.688

> <QED_score>
0.622

> <distance>
0.641

> <SimilarityPheSA_1>
0.708

> <Smiles>
C#Cc1cccc2cncc(CCNC(=O)C3CCc4cc(Cl)c(Cl)cc43)c12

> <Similarity_SkelSpheres>
0.725

> <Cluster No>
1.0

> <QueryID>
ADA-UCB-6c2cb422-1

> <SimilarityPheSA>
0.7084

> <Postera series>
3-aminopyridine-like

> <PDB_code>
Mpro-x10959

> <Approach>
DGM_focussed_RL

> <ID>
20210618_0

> <SimilarityPheSA_2>
0.723

> <OPTIBRIUM.logD>
4.83063

> <OPTIBRIUM.BBB category>
+

> <OPTIBRIUM.logP>
4.83063

> <OPTIBRIUM.P-gp category>
no

> <OPTIBRIUM.logS>
-0.41578

> <OPTIBRIUM.HIA category>
+

> <OPTIBRIUM.PPB90 category>
high

> <OPTIBRIUM.2D6 affinity category>
high

> <OPTIBRIUM.hERG pIC50>
5.10131

> <OPTIBRIUM.2C9 pKi>
5.78721

> <OPTIBRIUM.BBB log([brain]:[blood])>
-0.22871

> <OPTIBRIUM.logS @ pH7.4>
-0.41578

$$$$
Compound 266_1_10
haSeeSAR  07122111353D 1   1.00000     0.00000     0
SeeSAR 11.0.2 hazemaj
 44 47  0  0  0  0            999 V2000
    9.5989    0.0820   27.3480 Cl  0  0  0  0  0  0  0  0  0  0  0  0
    9.4069   -0.7424   25.7821 C   0  0  0  0  0  0  0  0  0  0  0  0
    8.8872   -2.0300   25.7406 C   0  0  0  0  0  0  0  0  0  0  0  0
    9.7760   -0.1070   24.6039 C   0  0  0  0  0  0  0  0  0  0  0  0
    8.4137   -2.8495   27.2461 Cl  0  0  0  0  0  0  0  0  0  0  0  0
    8.7221   -2.7099   24.5402 C   0  0  0  0  0  0  0  0  0  0  0  0
    9.6054   -0.8007   23.4120 C   0  0  0  0  0  0  0  0  0  0  0  0
    9.0903   -2.0678   23.3654 C   0  0  0  0  0  0  0  0  0  0  0  0
    9.7515   -0.8234   21.9017 C   0  0  1  0  0  0  0  0  0  0  0  0
    9.1916   -2.2206   21.8676 C   0  0  0  0  0  0  0  0  0  0  0  0
    8.8047    0.1404   21.2002 C   0  0  0  0  0  0  0  0  0  0  0  0
    9.2249    1.2174   20.7774 O   0  0  0  0  0  0  0  0  0  0  0  0
    7.5304   -0.1796   21.0451 N   0  0  0  0  0  0  0  0  0  0  0  0
    6.8158    0.3060   19.9427 C   0  0  0  0  0  0  0  0  0  0  0  0
    7.2413    0.0837   18.6894 N   0  0  0  0  0  0  0  0  0  0  0  0
    5.6444    1.0326   20.1316 C   0  0  0  0  0  0  0  0  0  0  0  0
    6.5974    0.5245   17.6586 N   0  0  0  0  0  0  0  0  0  0  0  0
    4.9546    1.5070   19.0446 C   0  0  0  0  0  0  0  0  0  0  0  0
    4.9070    1.4415   21.2688 C   0  0  0  0  0  0  0  0  0  0  0  0
    5.4660    1.2319   17.7797 C   0  0  0  0  0  0  0  0  0  0  0  0
    3.8634    2.1626   19.5354 N   0  0  0  0  0  0  0  0  0  0  0  0
    3.8568    2.1099   20.8470 N   0  0  0  0  0  0  0  0  0  0  0  0
    2.8364    2.8288   18.7196 C   0  0  0  0  0  0  0  0  0  0  0  0
    1.7262    3.3415   19.6223 C   0  0  0  0  0  0  0  0  0  0  0  0
    0.7170    4.1188   18.7930 C   0  0  0  0  0  0  0  0  0  0  0  0
   -0.3262    4.5877   19.6344 O   0  0  0  0  0  0  0  0  0  0  0  0
    0.0179    5.8665   20.1471 C   0  0  0  0  0  0  0  0  0  0  0  0
   10.1523    0.8195   24.6129 H   0  0  0  0  0  0  0  0  0  0  0  0
    8.3479   -3.6371   24.5227 H   0  0  0  0  0  0  0  0  0  0  0  0
   10.6984   -0.7601   21.5866 H   0  0  0  0  0  0  0  0  0  0  0  0
    8.3191   -2.3189   21.3888 H   0  0  0  0  0  0  0  0  0  0  0  0
    9.8259   -2.9266   21.5527 H   0  0  0  0  0  0  0  0  0  0  0  0
    7.0775   -0.7680   21.7147 H   0  0  0  0  0  0  0  0  0  0  0  0
    5.1430    1.2552   22.2225 H   0  0  0  0  0  0  0  0  0  0  0  0
    4.9904    1.5611   16.9639 H   0  0  0  0  0  0  0  0  0  0  0  0
    2.4576    2.1768   18.0629 H   0  0  0  0  0  0  0  0  0  0  0  0
    3.2474    3.5965   18.2279 H   0  0  0  0  0  0  0  0  0  0  0  0
    2.1154    3.9411   20.3217 H   0  0  0  0  0  0  0  0  0  0  0  0
    1.2705    2.5679   20.0627 H   0  0  0  0  0  0  0  0  0  0  0  0
    0.3340    3.5215   18.0884 H   0  0  0  0  0  0  0  0  0  0  0  0
    1.1710    4.8972   18.3593 H   0  0  0  0  0  0  0  0  0  0  0  0
   -0.7168    6.1967   20.7397 H   0  0  0  0  0  0  0  0  0  0  0  0
    0.8652    5.7976   20.6735 H   0  0  0  0  0  0  0  0  0  0  0  0
    0.1474    6.5057   19.3890 H   0  0  0  0  0  0  0  0  0  0  0  0
  1  2  1  0  0  0  0
  2  3  2  0  0  0  0
  2  4  1  0  0  0  0
  3  5  1  0  0  0  0
  3  6  1  0  0  0  0
  4  7  2  0  0  0  0
  6  8  2  0  0  0  0
  7  9  1  0  0  0  0
  8 10  1  0  0  0  0
  9 11  1  0  0  0  0
 11 12  2  0  0  0  0
 11 13  1  0  0  0  0
 13 14  1  0  0  0  0
 14 15  2  0  0  0  0
 14 16  1  0  0  0  0
 15 17  1  0  0  0  0
 16 18  2  0  0  0  0
 16 19  1  0  0  0  0
 17 20  2  0  0  0  0
 18 21  1  0  0  0  0
 19 22  2  0  0  0  0
 21 23  1  0  0  0  0
 23 24  1  0  0  0  0
 24 25  1  0  0  0  0
 25 26  1  0  0  0  0
 26 27  1  0  0  0  0
  7  8  1  0  0  0  0
  9 10  1  0  0  0  0
 18 20  1  0  0  0  0
 21 22  1  0  0  0  0
  4 28  1  0  0  0  0
  6 29  1  0  0  0  0
  9 30  1  0  0  0  0
 10 31  1  0  0  0  0
 10 32  1  0  0  0  0
 13 33  1  0  0  0  0
 19 34  1  0  0  0  0
 20 35  1  0  0  0  0
 23 36  1  0  0  0  0
 23 37  1  0  0  0  0
 24 38  1  0  0  0  0
 24 39  1  0  0  0  0
 25 40  1  0  0  0  0
 25 41  1  0  0  0  0
 27 42  1  0  0  0  0
 27 43  1  0  0  0  0
 27 44  1  0  0  0  0
M  END
> <BIOSOLVEIT.HYDE_ESTIMATED_AFFINITY_LOWER_BOUNDARY [nM]>
212117.532231

> <BIOSOLVEIT.HYDE_ESTIMATED_AFFINITY_UPPER_BOUNDARY [nM]>
21075130.965294

> <BIOSOLVEIT.HYDE_LIGAND_EFFICIENCY range: ++, +, 0, -, -->
--

> <BIOSOLVEIT.HYDE_LIGAND_LIPOPHILIC_EFFICIENCY range: ++, +, 0, -, -->
--

> <BIOSOLVEIT.INTER_CLASH range: red, yellow, green>
green

> <BIOSOLVEIT.INTRA_CLASH range: red, yellow, green>
green

> <BIOSOLVEIT.LOGP>
3.448

> <BIOSOLVEIT.MOLECULAR WEIGHT>
406.271

> <BIOSOLVEIT.MOLECULE_CHECKSUM>
LTE1LjI2Nzk7MC41NjU0Nzk=

> <BIOSOLVEIT.TORSION_QUALITY range: red, yellow, green, not rotatable>
red

> <BIOSOLVEIT.TPSA>
81.93

> <BIOSOLVEIT.SEESAR_FAVORITE>
favorite

> <smc_score>
0.563

> <QED_score>
0.635

> <distance>
0.682

> <SimilarityPheSA_1>
0.677

> <Smiles>
COCCCn1ncc2c(NC(=O)C3Cc4cc(Cl)c(Cl)cc43)nncc21

> <Similarity_SkelSpheres>
0.649

> <Cluster No>
130.0

> <QueryID>
JAN-GHE-5a013bed-2

> <SimilarityPheSA>
0.6768

> <Postera series>
3-aminopyridine-like

> <PDB_code>
Mpro-x10466

> <Approach>
DGM_focussed_RL

> <ID>
20210618_265

> <SimilarityPheSA_2>
0.772

> <OPTIBRIUM.logD>
3.07063

> <OPTIBRIUM.BBB category>
-

> <OPTIBRIUM.logP>
3.07063

> <OPTIBRIUM.P-gp category>
yes

> <OPTIBRIUM.logS>
1.42191

> <OPTIBRIUM.HIA category>
+

> <OPTIBRIUM.PPB90 category>
high

> <OPTIBRIUM.2D6 affinity category>
high

> <OPTIBRIUM.hERG pIC50>
5.37141

> <OPTIBRIUM.2C9 pKi>
5.37379

> <OPTIBRIUM.BBB log([brain]:[blood])>
-0.506323

> <OPTIBRIUM.logS @ pH7.4>
1.42191

$$$$
Compound 266_1_01
haSeeSAR  07122111353D 1   1.00000     0.00000     0
SeeSAR 11.0.2 hazemaj
 44 47  0  0  0  0            999 V2000
    9.5990    0.0819   27.3480 Cl  0  0  0  0  0  0  0  0  0  0  0  0
    9.4070   -0.7425   25.7821 C   0  0  0  0  0  0  0  0  0  0  0  0
    8.8874   -2.0300   25.7407 C   0  0  0  0  0  0  0  0  0  0  0  0
    9.7761   -0.1070   24.6039 C   0  0  0  0  0  0  0  0  0  0  0  0
    8.4139   -2.8495   27.2462 Cl  0  0  0  0  0  0  0  0  0  0  0  0
    8.7223   -2.7099   24.5402 C   0  0  0  0  0  0  0  0  0  0  0  0
    9.6056   -0.8006   23.4119 C   0  0  0  0  0  0  0  0  0  0  0  0
    9.0905   -2.0678   23.3654 C   0  0  0  0  0  0  0  0  0  0  0  0
    9.7516   -0.8233   21.9016 C   0  0  1  0  0  0  0  0  0  0  0  0
    9.1918   -2.2205   21.8675 C   0  0  0  0  0  0  0  0  0  0  0  0
    8.8049    0.1404   21.2002 C   0  0  0  0  0  0  0  0  0  0  0  0
    9.2250    1.2174   20.7774 O   0  0  0  0  0  0  0  0  0  0  0  0
    7.5305   -0.1795   21.0451 N   0  0  0  0  0  0  0  0  0  0  0  0
    6.8158    0.3060   19.9427 C   0  0  0  0  0  0  0  0  0  0  0  0
    7.2414    0.0836   18.6893 N   0  0  0  0  0  0  0  0  0  0  0  0
    5.6445    1.0326   20.1316 C   0  0  0  0  0  0  0  0  0  0  0  0
    6.5976    0.5246   17.6586 N   0  0  0  0  0  0  0  0  0  0  0  0
    4.9547    1.5069   19.0446 C   0  0  0  0  0  0  0  0  0  0  0  0
    4.9071    1.4414   21.2688 C   0  0  0  0  0  0  0  0  0  0  0  0
    5.4661    1.2319   17.7797 C   0  0  0  0  0  0  0  0  0  0  0  0
    3.8635    2.1625   19.5354 N   0  0  0  0  0  0  0  0  0  0  0  0
    3.8569    2.1098   20.8469 N   0  0  0  0  0  0  0  0  0  0  0  0
    2.8365    2.8288   18.7196 C   0  0  0  0  0  0  0  0  0  0  0  0
    1.7265    3.3418   19.6224 C   0  0  0  0  0  0  0  0  0  0  0  0
    0.7173    4.1189   18.7930 C   0  0  0  0  0  0  0  0  0  0  0  0
   -0.3257    4.5884   19.6347 O   0  0  0  0  0  0  0  0  0  0  0  0
    0.0189    5.8671   20.1470 C   0  0  0  0  0  0  0  0  0  0  0  0
   10.1524    0.8195   24.6129 H   0  0  0  0  0  0  0  0  0  0  0  0
    8.3481   -3.6371   24.5228 H   0  0  0  0  0  0  0  0  0  0  0  0
   10.6985   -0.7600   21.5865 H   0  0  0  0  0  0  0  0  0  0  0  0
    8.3193   -2.3189   21.3888 H   0  0  0  0  0  0  0  0  0  0  0  0
    9.8261   -2.9266   21.5528 H   0  0  0  0  0  0  0  0  0  0  0  0
    7.0776   -0.7680   21.7148 H   0  0  0  0  0  0  0  0  0  0  0  0
    5.1429    1.2551   22.2225 H   0  0  0  0  0  0  0  0  0  0  0  0
    4.9905    1.5611   16.9639 H   0  0  0  0  0  0  0  0  0  0  0  0
    2.4575    2.1766   18.0631 H   0  0  0  0  0  0  0  0  0  0  0  0
    3.2477    3.5962   18.2277 H   0  0  0  0  0  0  0  0  0  0  0  0
    2.1159    3.9417   20.3214 H   0  0  0  0  0  0  0  0  0  0  0  0
    1.2709    2.5684   20.0631 H   0  0  0  0  0  0  0  0  0  0  0  0
    0.3338    3.5214   18.0888 H   0  0  0  0  0  0  0  0  0  0  0  0
    1.1710    4.8971   18.3590 H   0  0  0  0  0  0  0  0  0  0  0  0
   -0.7156    6.1977   20.7397 H   0  0  0  0  0  0  0  0  0  0  0  0
    0.8664    5.7980   20.6733 H   0  0  0  0  0  0  0  0  0  0  0  0
    0.1485    6.5061   19.3888 H   0  0  0  0  0  0  0  0  0  0  0  0
  1  2  1  0  0  0  0
  2  3  2  0  0  0  0
  2  4  1  0  0  0  0
  3  5  1  0  0  0  0
  3  6  1  0  0  0  0
  4  7  2  0  0  0  0
  6  8  2  0  0  0  0
  7  9  1  0  0  0  0
  8 10  1  0  0  0  0
  9 11  1  0  0  0  0
 11 12  2  0  0  0  0
 11 13  1  0  0  0  0
 13 14  1  0  0  0  0
 14 15  2  0  0  0  0
 14 16  1  0  0  0  0
 15 17  1  0  0  0  0
 16 18  2  0  0  0  0
 16 19  1  0  0  0  0
 17 20  2  0  0  0  0
 18 21  1  0  0  0  0
 19 22  2  0  0  0  0
 21 23  1  0  0  0  0
 23 24  1  0  0  0  0
 24 25  1  0  0  0  0
 25 26  1  0  0  0  0
 26 27  1  0  0  0  0
  7  8  1  0  0  0  0
  9 10  1  0  0  0  0
 18 20  1  0  0  0  0
 21 22  1  0  0  0  0
  4 28  1  0  0  0  0
  6 29  1  0  0  0  0
  9 30  1  0  0  0  0
 10 31  1  0  0  0  0
 10 32  1  0  0  0  0
 13 33  1  0  0  0  0
 19 34  1  0  0  0  0
 20 35  1  0  0  0  0
 23 36  1  0  0  0  0
 23 37  1  0  0  0  0
 24 38  1  0  0  0  0
 24 39  1  0  0  0  0
 25 40  1  0  0  0  0
 25 41  1  0  0  0  0
 27 42  1  0  0  0  0
 27 43  1  0  0  0  0
 27 44  1  0  0  0  0
M  END
> <BIOSOLVEIT.HYDE_ESTIMATED_AFFINITY_LOWER_BOUNDARY [nM]>
212144.488679

> <BIOSOLVEIT.HYDE_ESTIMATED_AFFINITY_UPPER_BOUNDARY [nM]>
21077809.247784

> <BIOSOLVEIT.HYDE_LIGAND_EFFICIENCY range: ++, +, 0, -, -->
--

> <BIOSOLVEIT.HYDE_LIGAND_LIPOPHILIC_EFFICIENCY range: ++, +, 0, -, -->
--

> <BIOSOLVEIT.INTER_CLASH range: red, yellow, green>
green

> <BIOSOLVEIT.INTRA_CLASH range: red, yellow, green>
green

> <BIOSOLVEIT.LOGP>
3.448

> <BIOSOLVEIT.MOLECULAR WEIGHT>
406.271

> <BIOSOLVEIT.MOLECULE_CHECKSUM>
LTE1LjI2NzY7MC41NjU0Njc=

> <BIOSOLVEIT.TORSION_QUALITY range: red, yellow, green, not rotatable>
red

> <BIOSOLVEIT.TPSA>
81.93

> <BIOSOLVEIT.SEESAR_FAVORITE>
favorite

> <smc_score>
0.563

> <QED_score>
0.635

> <distance>
0.682

> <SimilarityPheSA_1>
0.677

> <Smiles>
COCCCn1ncc2c(NC(=O)C3Cc4cc(Cl)c(Cl)cc43)nncc21

> <Similarity_SkelSpheres>
0.649

> <Cluster No>
130.0

> <QueryID>
JAN-GHE-5a013bed-2

> <SimilarityPheSA>
0.6768

> <Postera series>
3-aminopyridine-like

> <PDB_code>
Mpro-x10466

> <Approach>
DGM_focussed_RL

> <ID>
20210618_265

> <SimilarityPheSA_2>
0.772

> <OPTIBRIUM.logD>
3.07063

> <OPTIBRIUM.BBB category>
-

> <OPTIBRIUM.logP>
3.07063

> <OPTIBRIUM.P-gp category>
yes

> <OPTIBRIUM.logS>
1.42191

> <OPTIBRIUM.HIA category>
+

> <OPTIBRIUM.PPB90 category>
high

> <OPTIBRIUM.2D6 affinity category>
high

> <OPTIBRIUM.hERG pIC50>
5.37141

> <OPTIBRIUM.2C9 pKi>
5.37379

> <OPTIBRIUM.BBB log([brain]:[blood])>
-0.506323

> <OPTIBRIUM.logS @ pH7.4>
1.42191

$$$$
Compound 36_1_09
haSeeSAR  07122111353D 1   1.00000     0.00000     0
SeeSAR 11.0.2 hazemaj
 46 49  0  0  0  0            999 V2000
    6.8373   -3.8202   23.9228 Cl  0  0  0  0  0  0  0  0  0  0  0  0
    6.9320   -2.6123   25.2269 C   0  0  0  0  0  0  0  0  0  0  0  0
    8.1654   -2.1679   25.6931 C   0  0  0  0  0  0  0  0  0  0  0  0
    5.7477   -2.1230   25.7684 C   0  0  0  0  0  0  0  0  0  0  0  0
    8.2068   -1.2224   26.7136 C   0  0  0  0  0  0  0  0  0  0  0  0
    9.4487   -2.7144   25.0880 C   0  0  0  0  0  0  0  0  0  0  0  0
    5.8100   -1.1782   26.7874 C   0  0  0  0  0  0  0  0  0  0  0  0
    9.3865   -0.7978   27.1588 F   0  0  0  0  0  0  0  0  0  0  0  0
    7.0330   -0.7213   27.2670 C   0  0  0  0  0  0  0  0  0  0  0  0
   10.1140   -1.6571   24.3124 N   0  3  2  0  0  0  0  0  0  0  0  0
    4.3099   -0.5356   27.4980 Cl  0  0  0  0  0  0  0  0  0  0  0  0
    9.1106   -0.8506   23.6139 C   0  0  0  0  0  0  0  0  0  0  0  0
   10.8727   -2.2516   23.2001 C   0  0  0  0  0  0  0  0  0  0  0  0
    9.9174   -0.1522   22.5362 C   0  0  1  0  0  0  0  0  0  0  0  0
   10.7965   -1.2783   22.0389 C   0  0  0  0  0  0  0  0  0  0  0  0
    9.0117    0.3537   21.4247 C   0  0  0  0  0  0  0  0  0  0  0  0
    9.2386    1.4402   20.8924 O   0  0  0  0  0  0  0  0  0  0  0  0
    7.9797   -0.3738   21.0296 N   0  0  0  0  0  0  0  0  0  0  0  0
    7.1454    0.0924   20.0058 C   0  0  0  0  0  0  0  0  0  0  0  0
    5.9296    0.7249   20.2563 C   0  0  0  0  0  0  0  0  0  0  0  0
    7.5542   -0.0875   18.6883 C   0  0  0  0  0  0  0  0  0  0  0  0
    5.1487    1.1642   19.1937 C   0  0  0  0  0  0  0  0  0  0  0  0
    5.4514    0.9414   21.5454 C   0  0  0  0  0  0  0  0  0  0  0  0
    6.7859    0.3437   17.6767 N   0  0  0  0  0  0  0  0  0  0  0  0
    5.6128    0.9544   17.8991 C   0  0  0  0  0  0  0  0  0  0  0  0
    3.9366    1.7951   19.4549 C   0  0  0  0  0  0  0  0  0  0  0  0
    4.2336    1.5760   21.7682 C   0  0  0  0  0  0  0  0  0  0  0  0
    3.5120    1.9846   20.7133 N   0  0  0  0  0  0  0  0  0  0  0  0
    4.8640   -2.4460   25.4298 H   0  0  0  0  0  0  0  0  0  0  0  0
    9.2324   -3.4833   24.4863 H   0  0  0  0  0  0  0  0  0  0  0  0
   10.0564   -3.0241   25.8193 H   0  0  0  0  0  0  0  0  0  0  0  0
    7.0681   -0.0417   27.9997 H   0  0  0  0  0  0  0  0  0  0  0  0
    8.6891   -0.1877   24.2327 H   0  0  0  0  0  0  0  0  0  0  0  0
    8.4011   -1.4298   23.2124 H   0  0  0  0  0  0  0  0  0  0  0  0
   10.4694   -3.1287   22.9397 H   0  0  0  0  0  0  0  0  0  0  0  0
   11.8257   -2.3898   23.4700 H   0  0  0  0  0  0  0  0  0  0  0  0
   10.4657    0.5904   22.9206 H   0  0  0  0  0  0  0  0  0  0  0  0
   10.3884   -1.7166   21.2381 H   0  0  0  0  0  0  0  0  0  0  0  0
   11.7069   -0.9373   21.8046 H   0  0  0  0  0  0  0  0  0  0  0  0
    7.7953   -1.2563   21.4620 H   0  0  0  0  0  0  0  0  0  0  0  0
    8.4245   -0.5401   18.4946 H   0  0  0  0  0  0  0  0  0  0  0  0
    5.9943    0.6347   22.3273 H   0  0  0  0  0  0  0  0  0  0  0  0
    5.0635    1.2634   17.1227 H   0  0  0  0  0  0  0  0  0  0  0  0
    3.3727    2.1125   18.6924 H   0  0  0  0  0  0  0  0  0  0  0  0
    3.9012    1.7251   22.6995 H   0  0  0  0  0  0  0  0  0  0  0  0
   10.6991   -1.0908   24.8928 H   0  0  0  0  0  0  0  0  0  0  0  0
  1  2  1  0  0  0  0
  2  3  2  0  0  0  0
  2  4  1  0  0  0  0
  3  5  1  0  0  0  0
  3  6  1  0  0  0  0
  4  7  2  0  0  0  0
  5  8  1  0  0  0  0
  5  9  2  0  0  0  0
  6 10  1  0  0  0  0
  7 11  1  0  0  0  0
 10 12  1  0  0  0  0
 10 13  1  0  0  0  0
 12 14  1  0  0  0  0
 13 15  1  0  0  0  0
 14 16  1  0  0  0  0
 16 17  2  0  0  0  0
 16 18  1  0  0  0  0
 18 19  1  0  0  0  0
 19 20  1  0  0  0  0
 19 21  2  0  0  0  0
 20 22  1  0  0  0  0
 20 23  2  0  0  0  0
 21 24  1  0  0  0  0
 22 25  1  0  0  0  0
 22 26  2  0  0  0  0
 23 27  1  0  0  0  0
 26 28  1  0  0  0  0
  7  9  1  0  0  0  0
 14 15  1  0  0  0  0
 24 25  2  0  0  0  0
 27 28  2  0  0  0  0
  4 29  1  0  0  0  0
  6 30  1  0  0  0  0
  6 31  1  0  0  0  0
  9 32  1  0  0  0  0
 12 33  1  0  0  0  0
 12 34  1  0  0  0  0
 13 35  1  0  0  0  0
 13 36  1  0  0  0  0
 14 37  1  0  0  0  0
 15 38  1  0  0  0  0
 15 39  1  0  0  0  0
 18 40  1  0  0  0  0
 21 41  1  0  0  0  0
 23 42  1  0  0  0  0
 25 43  1  0  0  0  0
 26 44  1  0  0  0  0
 27 45  1  0  0  0  0
 10 46  1  0  0  0  0
M  CHG  1  10   1
M  END
> <BIOSOLVEIT.HYDE_ESTIMATED_AFFINITY_LOWER_BOUNDARY [nM]>
213208.222694

> <BIOSOLVEIT.HYDE_ESTIMATED_AFFINITY_UPPER_BOUNDARY [nM]>
21183497.511430

> <BIOSOLVEIT.HYDE_LIGAND_EFFICIENCY range: ++, +, 0, -, -->
--

> <BIOSOLVEIT.HYDE_LIGAND_LIPOPHILIC_EFFICIENCY range: ++, +, 0, -, -->
--

> <BIOSOLVEIT.INTER_CLASH range: red, yellow, green>
green

> <BIOSOLVEIT.INTRA_CLASH range: red, yellow, green>
green

> <BIOSOLVEIT.LOGP>
3.1192

> <BIOSOLVEIT.MOLECULAR WEIGHT>
420.293

> <BIOSOLVEIT.MOLECULE_CHECKSUM>
LTE1LjI1NTI7MC41NDQ4Mjk=

> <BIOSOLVEIT.TORSION_QUALITY range: red, yellow, green, not rotatable>
yellow

> <BIOSOLVEIT.TPSA>
59.32

> <BIOSOLVEIT.SEESAR_FAVORITE>
favorite

> <smc_score>
0.688

> <QED_score>
0.675

> <distance>
0.541

> <SimilarityPheSA_1>
0.638

> <Smiles>
O=C(Nc1cncc2cnccc12)C1CCN(Cc2c(F)cc(Cl)cc2Cl)C1

> <Similarity_SkelSpheres>
0.775

> <Cluster No>
18.0

> <QueryID>
MAT-POS-bb423b95-1

> <SimilarityPheSA>
0.6383

> <Postera series>
3-aminopyridine-like

> <PDB_code>
Mpro-x11542

> <Approach>
DGM_focussed_RL

> <ID>
20210618_35

> <SimilarityPheSA_2>
0.741

> <OPTIBRIUM.logD>
2.60539

> <OPTIBRIUM.BBB category>
-

> <OPTIBRIUM.logP>
2.51247

> <OPTIBRIUM.P-gp category>
yes

> <OPTIBRIUM.logS>
1.20941

> <OPTIBRIUM.HIA category>
+

> <OPTIBRIUM.PPB90 category>
high

> <OPTIBRIUM.2D6 affinity category>
high

> <OPTIBRIUM.hERG pIC50>
5.15418

> <OPTIBRIUM.2C9 pKi>
5.54286

> <OPTIBRIUM.BBB log([brain]:[blood])>
-0.502723

> <OPTIBRIUM.logS @ pH7.4>
1.8643

$$$$
Compound 266_1_06
haSeeSAR  07122111353D 1   1.00000     0.00000     0
SeeSAR 11.0.2 hazemaj
 44 47  0  0  0  0            999 V2000
    9.5987    0.0822   27.3481 Cl  0  0  0  0  0  0  0  0  0  0  0  0
    9.4072   -0.7422   25.7821 C   0  0  0  0  0  0  0  0  0  0  0  0
    8.8881   -2.0300   25.7404 C   0  0  0  0  0  0  0  0  0  0  0  0
    9.7762   -0.1064   24.6040 C   0  0  0  0  0  0  0  0  0  0  0  0
    8.4149   -2.8498   27.2458 Cl  0  0  0  0  0  0  0  0  0  0  0  0
    8.7234   -2.7098   24.5400 C   0  0  0  0  0  0  0  0  0  0  0  0
    9.6060   -0.8001   23.4119 C   0  0  0  0  0  0  0  0  0  0  0  0
    9.0914   -2.0675   23.3653 C   0  0  0  0  0  0  0  0  0  0  0  0
    9.7521   -0.8226   21.9017 C   0  0  1  0  0  0  0  0  0  0  0  0
    9.1929   -2.2201   21.8674 C   0  0  0  0  0  0  0  0  0  0  0  0
    8.8050    0.1408   21.2002 C   0  0  0  0  0  0  0  0  0  0  0  0
    9.2248    1.2179   20.7771 O   0  0  0  0  0  0  0  0  0  0  0  0
    7.5308   -0.1795   21.0454 N   0  0  0  0  0  0  0  0  0  0  0  0
    6.8157    0.3057   19.9431 C   0  0  0  0  0  0  0  0  0  0  0  0
    7.2417    0.0842   18.6897 N   0  0  0  0  0  0  0  0  0  0  0  0
    5.6436    1.0310   20.1321 C   0  0  0  0  0  0  0  0  0  0  0  0
    6.5975    0.5247   17.6590 N   0  0  0  0  0  0  0  0  0  0  0  0
    4.9535    1.5050   19.0451 C   0  0  0  0  0  0  0  0  0  0  0  0
    4.9056    1.4388   21.2692 C   0  0  0  0  0  0  0  0  0  0  0  0
    5.4653    1.2309   17.7802 C   0  0  0  0  0  0  0  0  0  0  0  0
    3.8615    2.1594   19.5360 N   0  0  0  0  0  0  0  0  0  0  0  0
    3.8548    2.1063   20.8475 N   0  0  0  0  0  0  0  0  0  0  0  0
    2.8340    2.8248   18.7203 C   0  0  0  0  0  0  0  0  0  0  0  0
    1.7396    3.3653   19.6261 C   0  0  0  0  0  0  0  0  0  0  0  0
    0.7248    4.1314   18.7932 C   0  0  0  0  0  0  0  0  0  0  0  0
   -0.3001    4.6323   19.6389 O   0  0  0  0  0  0  0  0  0  0  0  0
    0.1037    4.5108   20.9948 C   0  0  0  0  0  0  0  0  0  0  0  0
   10.1520    0.8202   24.6131 H   0  0  0  0  0  0  0  0  0  0  0  0
    8.3496   -3.6372   24.5224 H   0  0  0  0  0  0  0  0  0  0  0  0
   10.6991   -0.7589   21.5866 H   0  0  0  0  0  0  0  0  0  0  0  0
    8.3205   -2.3187   21.3886 H   0  0  0  0  0  0  0  0  0  0  0  0
    9.8275   -2.9258   21.5525 H   0  0  0  0  0  0  0  0  0  0  0  0
    7.0781   -0.7679   21.7153 H   0  0  0  0  0  0  0  0  0  0  0  0
    5.1417    1.2524   22.2229 H   0  0  0  0  0  0  0  0  0  0  0  0
    4.9895    1.5598   16.9644 H   0  0  0  0  0  0  0  0  0  0  0  0
    2.4405    2.1669   18.0781 H   0  0  0  0  0  0  0  0  0  0  0  0
    3.2488    3.5795   18.2120 H   0  0  0  0  0  0  0  0  0  0  0  0
    2.1423    3.9773   20.3068 H   0  0  0  0  0  0  0  0  0  0  0  0
    1.2845    2.6048   20.0894 H   0  0  0  0  0  0  0  0  0  0  0  0
    0.3245    3.5202   18.1105 H   0  0  0  0  0  0  0  0  0  0  0  0
    1.1792    4.8938   18.3326 H   0  0  0  0  0  0  0  0  0  0  0  0
   -0.6181    4.8636   21.5904 H   0  0  0  0  0  0  0  0  0  0  0  0
    0.2707    3.5482   21.2079 H   0  0  0  0  0  0  0  0  0  0  0  0
    0.9425    5.0351   21.1412 H   0  0  0  0  0  0  0  0  0  0  0  0
  1  2  1  0  0  0  0
  2  3  2  0  0  0  0
  2  4  1  0  0  0  0
  3  5  1  0  0  0  0
  3  6  1  0  0  0  0
  4  7  2  0  0  0  0
  6  8  2  0  0  0  0
  7  9  1  0  0  0  0
  8 10  1  0  0  0  0
  9 11  1  0  0  0  0
 11 12  2  0  0  0  0
 11 13  1  0  0  0  0
 13 14  1  0  0  0  0
 14 15  2  0  0  0  0
 14 16  1  0  0  0  0
 15 17  1  0  0  0  0
 16 18  2  0  0  0  0
 16 19  1  0  0  0  0
 17 20  2  0  0  0  0
 18 21  1  0  0  0  0
 19 22  2  0  0  0  0
 21 23  1  0  0  0  0
 23 24  1  0  0  0  0
 24 25  1  0  0  0  0
 25 26  1  0  0  0  0
 26 27  1  0  0  0  0
  7  8  1  0  0  0  0
  9 10  1  0  0  0  0
 18 20  1  0  0  0  0
 21 22  1  0  0  0  0
  4 28  1  0  0  0  0
  6 29  1  0  0  0  0
  9 30  1  0  0  0  0
 10 31  1  0  0  0  0
 10 32  1  0  0  0  0
 13 33  1  0  0  0  0
 19 34  1  0  0  0  0
 20 35  1  0  0  0  0
 23 36  1  0  0  0  0
 23 37  1  0  0  0  0
 24 38  1  0  0  0  0
 24 39  1  0  0  0  0
 25 40  1  0  0  0  0
 25 41  1  0  0  0  0
 27 42  1  0  0  0  0
 27 43  1  0  0  0  0
 27 44  1  0  0  0  0
M  END
> <BIOSOLVEIT.HYDE_ESTIMATED_AFFINITY_LOWER_BOUNDARY [nM]>
217750.054265

> <BIOSOLVEIT.HYDE_ESTIMATED_AFFINITY_UPPER_BOUNDARY [nM]>
21634755.331474

> <BIOSOLVEIT.HYDE_LIGAND_EFFICIENCY range: ++, +, 0, -, -->
--

> <BIOSOLVEIT.HYDE_LIGAND_LIPOPHILIC_EFFICIENCY range: ++, +, 0, -, -->
--

> <BIOSOLVEIT.INTER_CLASH range: red, yellow, green>
green

> <BIOSOLVEIT.INTRA_CLASH range: red, yellow, green>
green

> <BIOSOLVEIT.LOGP>
3.448

> <BIOSOLVEIT.MOLECULAR WEIGHT>
406.271

> <BIOSOLVEIT.MOLECULE_CHECKSUM>
LTE1LjIwMzswLjU2MzA3Mw==

> <BIOSOLVEIT.TORSION_QUALITY range: red, yellow, green, not rotatable>
red

> <BIOSOLVEIT.TPSA>
81.93

> <BIOSOLVEIT.SEESAR_FAVORITE>
favorite

> <smc_score>
0.563

> <QED_score>
0.635

> <distance>
0.682

> <SimilarityPheSA_1>
0.677

> <Smiles>
COCCCn1ncc2c(NC(=O)C3Cc4cc(Cl)c(Cl)cc43)nncc21

> <Similarity_SkelSpheres>
0.649

> <Cluster No>
130.0

> <QueryID>
JAN-GHE-5a013bed-2

> <SimilarityPheSA>
0.6768

> <Postera series>
3-aminopyridine-like

> <PDB_code>
Mpro-x10466

> <Approach>
DGM_focussed_RL

> <ID>
20210618_265

> <SimilarityPheSA_2>
0.772

> <OPTIBRIUM.logD>
3.07063

> <OPTIBRIUM.BBB category>
-

> <OPTIBRIUM.logP>
3.07063

> <OPTIBRIUM.P-gp category>
yes

> <OPTIBRIUM.logS>
1.42191

> <OPTIBRIUM.HIA category>
+

> <OPTIBRIUM.PPB90 category>
high

> <OPTIBRIUM.2D6 affinity category>
high

> <OPTIBRIUM.hERG pIC50>
5.37141

> <OPTIBRIUM.2C9 pKi>
5.37379

> <OPTIBRIUM.BBB log([brain]:[blood])>
-0.506323

> <OPTIBRIUM.logS @ pH7.4>
1.42191

$$$$
Compound 250_1_10
haSeeSAR  07122111353D 1   1.00000     0.00000     0
SeeSAR 11.0.2 hazemaj
 36 38  0  0  0  0            999 V2000
   13.8176    0.3035   23.4995 Cl  0  0  0  0  0  0  0  0  0  0  0  0
   12.0788    0.0806   23.1915 C   0  0  0  0  0  0  0  0  0  0  0  0
   11.6574   -0.7591   22.1664 C   0  0  0  0  0  0  0  0  0  0  0  0
   11.1501    0.7499   23.9816 C   0  0  0  0  0  0  0  0  0  0  0  0
   12.8622   -1.6062   21.1669 Cl  0  0  0  0  0  0  0  0  0  0  0  0
   10.3022   -0.9433   21.9141 C   0  0  0  0  0  0  0  0  0  0  0  0
    9.7942    0.5672   23.7310 C   0  0  0  0  0  0  0  0  0  0  0  0
    9.3749   -0.2735   22.7054 C   0  0  0  0  0  0  0  0  0  0  0  0
    8.8918    1.2166   24.4963 O   0  0  0  0  0  0  0  0  0  0  0  0
    7.8929   -0.4732   22.4329 C   0  0  0  0  0  0  0  0  0  0  0  0
    8.4732    0.6549   25.7316 C   0  0  0  0  0  0  0  0  0  0  0  0
    7.4729    0.3923   21.2562 C   0  0  0  0  0  0  0  0  0  0  0  0
    8.2645    1.2028   20.7748 O   0  0  0  0  0  0  0  0  0  0  0  0
    6.2566    0.2745   20.7493 N   0  0  0  0  0  0  0  0  0  0  0  0
    6.0361    0.5328   19.3897 C   0  0  0  0  0  0  0  0  0  0  0  0
    5.2367    1.5002   18.8583 N   0  0  0  0  0  0  0  0  0  0  0  0
    6.5772   -0.1322   18.3334 C   0  0  0  0  0  0  0  0  0  0  0  0
    5.2929    1.4155   17.5492 N   0  0  0  0  0  0  0  0  0  0  0  0
    4.4500    2.4651   19.6374 C   0  0  0  0  0  0  0  0  0  0  0  0
    6.0759    0.4643   17.2141 N   0  0  0  0  0  0  0  0  0  0  0  0
    3.4052    1.7809   20.4709 C   0  0  0  0  0  0  0  0  0  0  0  0
    3.0111    2.4935   19.2086 C   0  0  0  0  0  0  0  0  0  0  0  0
   11.4527    1.3537   24.7189 H   0  0  0  0  0  0  0  0  0  0  0  0
    9.9996   -1.5471   21.1766 H   0  0  0  0  0  0  0  0  0  0  0  0
    7.3670   -0.2130   23.2426 H   0  0  0  0  0  0  0  0  0  0  0  0
    7.7201   -1.4346   22.2181 H   0  0  0  0  0  0  0  0  0  0  0  0
    7.8076    1.2620   26.1654 H   0  0  0  0  0  0  0  0  0  0  0  0
    8.0527   -0.2373   25.5667 H   0  0  0  0  0  0  0  0  0  0  0  0
    9.2648    0.5443   26.3327 H   0  0  0  0  0  0  0  0  0  0  0  0
    5.4945    0.0014   21.3363 H   0  0  0  0  0  0  0  0  0  0  0  0
    7.2137   -0.9026   18.3702 H   0  0  0  0  0  0  0  0  0  0  0  0
    4.8835    3.3010   19.9741 H   0  0  0  0  0  0  0  0  0  0  0  0
    3.1481    2.1597   21.3600 H   0  0  0  0  0  0  0  0  0  0  0  0
    3.3734    0.7823   20.5122 H   0  0  0  0  0  0  0  0  0  0  0  0
    2.7171    1.9693   18.4095 H   0  0  0  0  0  0  0  0  0  0  0  0
    2.4917    3.3466   19.2573 H   0  0  0  0  0  0  0  0  0  0  0  0
  1  2  1  0  0  0  0
  2  3  2  0  0  0  0
  2  4  1  0  0  0  0
  3  5  1  0  0  0  0
  3  6  1  0  0  0  0
  4  7  2  0  0  0  0
  6  8  2  0  0  0  0
  7  9  1  0  0  0  0
  8 10  1  0  0  0  0
  9 11  1  0  0  0  0
 10 12  1  0  0  0  0
 12 13  2  0  0  0  0
 12 14  1  0  0  0  0
 14 15  1  0  0  0  0
 15 16  1  0  0  0  0
 15 17  2  0  0  0  0
 16 18  1  0  0  0  0
 16 19  1  0  0  0  0
 17 20  1  0  0  0  0
 19 21  1  0  0  0  0
 19 22  1  0  0  0  0
  7  8  1  0  0  0  0
 18 20  2  0  0  0  0
 21 22  1  0  0  0  0
  4 23  1  0  0  0  0
  6 24  1  0  0  0  0
 10 25  1  0  0  0  0
 10 26  1  0  0  0  0
 11 27  1  0  0  0  0
 11 28  1  0  0  0  0
 11 29  1  0  0  0  0
 14 30  1  0  0  0  0
 17 31  1  0  0  0  0
 19 32  1  0  0  0  0
 21 33  1  0  0  0  0
 21 34  1  0  0  0  0
 22 35  1  0  0  0  0
 22 36  1  0  0  0  0
M  END
> <BIOSOLVEIT.HYDE_ESTIMATED_AFFINITY_LOWER_BOUNDARY [nM]>
231600.308997

> <BIOSOLVEIT.HYDE_ESTIMATED_AFFINITY_UPPER_BOUNDARY [nM]>
23010860.028275

> <BIOSOLVEIT.HYDE_LIGAND_EFFICIENCY range: ++, +, 0, -, -->
--

> <BIOSOLVEIT.HYDE_LIGAND_LIPOPHILIC_EFFICIENCY range: ++, +, 0, -, -->
--

> <BIOSOLVEIT.INTER_CLASH range: red, yellow, green>
yellow

> <BIOSOLVEIT.INTRA_CLASH range: red, yellow, green>
green

> <BIOSOLVEIT.LOGP>
3.1096

> <BIOSOLVEIT.MOLECULAR WEIGHT>
341.197

> <BIOSOLVEIT.MOLECULE_CHECKSUM>
LTE1LjA1MDE7MC42ODQwOTY=

> <BIOSOLVEIT.TORSION_QUALITY range: red, yellow, green, not rotatable>
yellow

> <BIOSOLVEIT.TPSA>
69.04

> <BIOSOLVEIT.SEESAR_FAVORITE>
favorite

> <smc_score>
0.688

> <QED_score>
0.907

> <distance>
0.642

> <SimilarityPheSA_1>
0.736

> <Smiles>
COc1cc(Cl)c(Cl)cc1CC(=O)Nc1cnnn1C1CC1

> <Similarity_SkelSpheres>
0.651

> <Cluster No>
123.0

> <QueryID>
JAG-UCB-a3ef7265-20

> <SimilarityPheSA>
0.736

> <Postera series>
3-aminopyridine-like

> <PDB_code>
Mpro-x10324

> <Approach>
DGM_focussed_RL

> <ID>
20210618_249

> <SimilarityPheSA_2>
0.826

> <OPTIBRIUM.logD>
3.14179

> <OPTIBRIUM.BBB category>
-

> <OPTIBRIUM.logP>
3.14179

> <OPTIBRIUM.P-gp category>
no

> <OPTIBRIUM.logS>
2.56919

> <OPTIBRIUM.HIA category>
+

> <OPTIBRIUM.PPB90 category>
high

> <OPTIBRIUM.2D6 affinity category>
high

> <OPTIBRIUM.hERG pIC50>
4.81246

> <OPTIBRIUM.2C9 pKi>
5.08717

> <OPTIBRIUM.BBB log([brain]:[blood])>
-0.116614

> <OPTIBRIUM.logS @ pH7.4>
2.56919

$$$$
Compound 527_1_3
haSeeSAR  07122111353D 1   1.00000     0.00000     0
SeeSAR 11.0.2 hazemaj
 35 37  0  0  0  0            999 V2000
   13.0534    1.8828   23.1408 Cl  0  0  0  0  0  0  0  0  0  0  0  0
   11.8017    0.6599   22.8150 C   0  0  0  0  0  0  0  0  0  0  0  0
   12.1771   -0.6337   22.4686 C   0  0  0  0  0  0  0  0  0  0  0  0
   10.4577    1.0054   22.9094 C   0  0  0  0  0  0  0  0  0  0  0  0
   13.4653   -0.9516   22.3816 F   0  0  0  0  0  0  0  0  0  0  0  0
   11.2120   -1.6016   22.2112 C   0  0  0  0  0  0  0  0  0  0  0  0
    9.4919    0.0384   22.6522 C   0  0  0  0  0  0  0  0  0  0  0  0
    9.8684   -1.2546   22.3061 C   0  0  0  0  0  0  0  0  0  0  0  0
    8.0217    0.4109   22.7534 C   0  0  0  0  0  0  0  0  0  0  0  0
    8.6317   -2.4916   21.9761 Cl  0  0  0  0  0  0  0  0  0  0  0  0
    7.5310    0.9082   21.4035 C   0  0  0  0  0  0  0  0  0  0  0  0
    8.2282    1.6754   20.7397 O   0  0  0  0  0  0  0  0  0  0  0  0
    6.3545    0.5165   20.9420 N   0  0  0  0  0  0  0  0  0  0  0  0
    6.0725    0.6104   19.5726 C   0  0  0  0  0  0  0  0  0  0  0  0
    4.9356    1.1042   19.0123 N   0  0  0  0  0  0  0  0  0  0  0  0
    6.8872    0.2248   18.5511 C   0  0  0  0  0  0  0  0  0  0  0  0
    5.0722    1.0068   17.7124 N   0  0  0  0  0  0  0  0  0  0  0  0
    3.7635    1.6327   19.7287 C   0  0  0  0  0  0  0  0  0  0  0  0
    6.1994    0.4973   17.4069 N   0  0  0  0  0  0  0  0  0  0  0  0
    3.2611    2.8838   19.0253 C   0  0  0  0  0  0  0  0  0  0  0  0
    2.5043    3.7666   19.9740 C   0  0  0  0  0  0  0  0  0  0  0  0
    1.7620    2.9429   18.9610 C   0  0  0  0  0  0  0  0  0  0  0  0
   10.1897    1.9360   23.1587 H   0  0  0  0  0  0  0  0  0  0  0  0
   11.4798   -2.5322   21.9621 H   0  0  0  0  0  0  0  0  0  0  0  0
    7.9070    1.1324   23.4363 H   0  0  0  0  0  0  0  0  0  0  0  0
    7.4922   -0.3927   23.0252 H   0  0  0  0  0  0  0  0  0  0  0  0
    5.6666    0.1535   21.5705 H   0  0  0  0  0  0  0  0  0  0  0  0
    7.8006   -0.1752   18.6257 H   0  0  0  0  0  0  0  0  0  0  0  0
    4.0211    1.8591   20.6680 H   0  0  0  0  0  0  0  0  0  0  0  0
    3.0398    0.9426   19.7386 H   0  0  0  0  0  0  0  0  0  0  0  0
    3.8055    3.2938   18.2934 H   0  0  0  0  0  0  0  0  0  0  0  0
    2.5481    4.7608   19.8748 H   0  0  0  0  0  0  0  0  0  0  0  0
    2.4537    3.5304   20.9443 H   0  0  0  0  0  0  0  0  0  0  0  0
    1.2175    2.1581   19.2567 H   0  0  0  0  0  0  0  0  0  0  0  0
    1.3118    3.3885   18.1872 H   0  0  0  0  0  0  0  0  0  0  0  0
  1  2  1  0  0  0  0
  2  3  2  0  0  0  0
  2  4  1  0  0  0  0
  3  5  1  0  0  0  0
  3  6  1  0  0  0  0
  4  7  2  0  0  0  0
  6  8  2  0  0  0  0
  7  9  1  0  0  0  0
  8 10  1  0  0  0  0
  9 11  1  0  0  0  0
 11 12  2  0  0  0  0
 11 13  1  0  0  0  0
 13 14  1  0  0  0  0
 14 15  1  0  0  0  0
 14 16  2  0  0  0  0
 15 17  1  0  0  0  0
 15 18  1  0  0  0  0
 16 19  1  0  0  0  0
 18 20  1  0  0  0  0
 20 21  1  0  0  0  0
 20 22  1  0  0  0  0
  7  8  1  0  0  0  0
 17 19  2  0  0  0  0
 21 22  1  0  0  0  0
  4 23  1  0  0  0  0
  6 24  1  0  0  0  0
  9 25  1  0  0  0  0
  9 26  1  0  0  0  0
 13 27  1  0  0  0  0
 16 28  1  0  0  0  0
 18 29  1  0  0  0  0
 18 30  1  0  0  0  0
 20 31  1  0  0  0  0
 21 32  1  0  0  0  0
 21 33  1  0  0  0  0
 22 34  1  0  0  0  0
 22 35  1  0  0  0  0
M  END
> <BIOSOLVEIT.HYDE_ESTIMATED_AFFINITY_LOWER_BOUNDARY [nM]>
235406.168381

> <BIOSOLVEIT.HYDE_ESTIMATED_AFFINITY_UPPER_BOUNDARY [nM]>
23388994.660076

> <BIOSOLVEIT.HYDE_LIGAND_EFFICIENCY range: ++, +, 0, -, -->
--

> <BIOSOLVEIT.HYDE_LIGAND_LIPOPHILIC_EFFICIENCY range: ++, +, 0, -, -->
--

> <BIOSOLVEIT.INTER_CLASH range: red, yellow, green>
green

> <BIOSOLVEIT.INTRA_CLASH range: red, yellow, green>
green

> <BIOSOLVEIT.LOGP>
3.3152

> <BIOSOLVEIT.MOLECULAR WEIGHT>
343.188

> <BIOSOLVEIT.MOLECULE_CHECKSUM>
LTE1LjAwOTc7MC42ODIyNTk=

> <BIOSOLVEIT.TORSION_QUALITY range: red, yellow, green, not rotatable>
yellow

> <BIOSOLVEIT.TPSA>
59.81

> <BIOSOLVEIT.SEESAR_FAVORITE>
favorite

> <smc_score>
0.75

> <QED_score>
0.848

> <distance>
0.667

> <SimilarityPheSA_1>
0.761

> <Smiles>
O=C(Cc1cc(Cl)c(F)cc1Cl)Nc1cnnn1CC1CC1

> <Similarity_SkelSpheres>
0.587

> <Cluster No>
282.0

> <QueryID>
JAG-UCB-a3ef7265-20

> <SimilarityPheSA>
0.7609

> <Postera series>
3-aminopyridine-like

> <PDB_code>
Mpro-x10324

> <Approach>
DGM_focussed_RL

> <ID>
20210618_526

> <SimilarityPheSA_2>
0.811

> <OPTIBRIUM.logD>
3.47777

> <OPTIBRIUM.BBB category>
-

> <OPTIBRIUM.logP>
3.47777

> <OPTIBRIUM.P-gp category>
no

> <OPTIBRIUM.logS>
1.72641

> <OPTIBRIUM.HIA category>
+

> <OPTIBRIUM.PPB90 category>
high

> <OPTIBRIUM.2D6 affinity category>
high

> <OPTIBRIUM.hERG pIC50>
5.13412

> <OPTIBRIUM.2C9 pKi>
5.03421

> <OPTIBRIUM.BBB log([brain]:[blood])>
0.00208259

> <OPTIBRIUM.logS @ pH7.4>
1.72641

$$$$
Compound 266_1_05
haSeeSAR  07122111353D 1   1.00000     0.00000     0
SeeSAR 11.0.2 hazemaj
 44 47  0  0  0  0            999 V2000
    9.5910    0.0975   27.3485 Cl  0  0  0  0  0  0  0  0  0  0  0  0
    9.3967   -0.7308   25.7849 C   0  0  0  0  0  0  0  0  0  0  0  0
    8.8737   -2.0172   25.7470 C   0  0  0  0  0  0  0  0  0  0  0  0
    9.7672   -0.0996   24.6048 C   0  0  0  0  0  0  0  0  0  0  0  0
    8.3984   -2.8312   27.2549 Cl  0  0  0  0  0  0  0  0  0  0  0  0
    8.7067   -2.7000   24.5486 C   0  0  0  0  0  0  0  0  0  0  0  0
    9.5947   -0.7962   23.4149 C   0  0  0  0  0  0  0  0  0  0  0  0
    9.0763   -2.0621   23.3720 C   0  0  0  0  0  0  0  0  0  0  0  0
    9.7404   -0.8235   21.9046 C   0  0  1  0  0  0  0  0  0  0  0  0
    9.1770   -2.2193   21.8745 C   0  0  0  0  0  0  0  0  0  0  0  0
    8.7959    0.1407   21.2006 C   0  0  0  0  0  0  0  0  0  0  0  0
    9.2183    1.2165   20.7767 O   0  0  0  0  0  0  0  0  0  0  0  0
    7.5214   -0.1775   21.0445 N   0  0  0  0  0  0  0  0  0  0  0  0
    6.8087    0.3076   19.9406 C   0  0  0  0  0  0  0  0  0  0  0  0
    7.2391    0.0887   18.6882 N   0  0  0  0  0  0  0  0  0  0  0  0
    5.6344    1.0301   20.1268 C   0  0  0  0  0  0  0  0  0  0  0  0
    6.5972    0.5291   17.6561 N   0  0  0  0  0  0  0  0  0  0  0  0
    4.9467    1.5040   19.0383 C   0  0  0  0  0  0  0  0  0  0  0  0
    4.8920    1.4347   21.2622 C   0  0  0  0  0  0  0  0  0  0  0  0
    5.4631    1.2326   17.7746 C   0  0  0  0  0  0  0  0  0  0  0  0
    3.8517    2.1553   19.5266 N   0  0  0  0  0  0  0  0  0  0  0  0
    3.8410    2.1004   20.8380 N   0  0  0  0  0  0  0  0  0  0  0  0
    2.8252    2.8195   18.7085 C   0  0  0  0  0  0  0  0  0  0  0  0
    1.9890    3.7338   19.5889 C   0  0  0  0  0  0  0  0  0  0  0  0
    0.9884    4.4889   18.7293 C   0  0  0  0  0  0  0  0  0  0  0  0
    1.2640    5.8804   18.7939 O   0  0  0  0  0  0  0  0  0  0  0  0
    1.7022    6.3357   17.5222 C   0  0  0  0  0  0  0  0  0  0  0  0
   10.1458    0.8259   24.6112 H   0  0  0  0  0  0  0  0  0  0  0  0
    8.3302   -3.6263   24.5338 H   0  0  0  0  0  0  0  0  0  0  0  0
   10.6875   -0.7634   21.5892 H   0  0  0  0  0  0  0  0  0  0  0  0
    8.3042   -2.3168   21.3962 H   0  0  0  0  0  0  0  0  0  0  0  0
    9.8095   -2.9278   21.5615 H   0  0  0  0  0  0  0  0  0  0  0  0
    7.0668   -0.7642   21.7145 H   0  0  0  0  0  0  0  0  0  0  0  0
    5.1254    1.2476   22.2164 H   0  0  0  0  0  0  0  0  0  0  0  0
    4.9891    1.5616   16.9578 H   0  0  0  0  0  0  0  0  0  0  0  0
    2.2352    2.1295   18.2892 H   0  0  0  0  0  0  0  0  0  0  0  0
    3.2675    3.3595   17.9924 H   0  0  0  0  0  0  0  0  0  0  0  0
    2.5870    4.3858   20.0552 H   0  0  0  0  0  0  0  0  0  0  0  0
    1.4993    3.1865   20.2677 H   0  0  0  0  0  0  0  0  0  0  0  0
    0.0628    4.3163   19.0659 H   0  0  0  0  0  0  0  0  0  0  0  0
    1.0619    4.1782   17.7817 H   0  0  0  0  0  0  0  0  0  0  0  0
    1.8961    7.3156   17.5678 H   0  0  0  0  0  0  0  0  0  0  0  0
    2.5320    5.8434   17.2597 H   0  0  0  0  0  0  0  0  0  0  0  0
    0.9867    6.1687   16.8438 H   0  0  0  0  0  0  0  0  0  0  0  0
  1  2  1  0  0  0  0
  2  3  2  0  0  0  0
  2  4  1  0  0  0  0
  3  5  1  0  0  0  0
  3  6  1  0  0  0  0
  4  7  2  0  0  0  0
  6  8  2  0  0  0  0
  7  9  1  0  0  0  0
  8 10  1  0  0  0  0
  9 11  1  0  0  0  0
 11 12  2  0  0  0  0
 11 13  1  0  0  0  0
 13 14  1  0  0  0  0
 14 15  2  0  0  0  0
 14 16  1  0  0  0  0
 15 17  1  0  0  0  0
 16 18  2  0  0  0  0
 16 19  1  0  0  0  0
 17 20  2  0  0  0  0
 18 21  1  0  0  0  0
 19 22  2  0  0  0  0
 21 23  1  0  0  0  0
 23 24  1  0  0  0  0
 24 25  1  0  0  0  0
 25 26  1  0  0  0  0
 26 27  1  0  0  0  0
  7  8  1  0  0  0  0
  9 10  1  0  0  0  0
 18 20  1  0  0  0  0
 21 22  1  0  0  0  0
  4 28  1  0  0  0  0
  6 29  1  0  0  0  0
  9 30  1  0  0  0  0
 10 31  1  0  0  0  0
 10 32  1  0  0  0  0
 13 33  1  0  0  0  0
 19 34  1  0  0  0  0
 20 35  1  0  0  0  0
 23 36  1  0  0  0  0
 23 37  1  0  0  0  0
 24 38  1  0  0  0  0
 24 39  1  0  0  0  0
 25 40  1  0  0  0  0
 25 41  1  0  0  0  0
 27 42  1  0  0  0  0
 27 43  1  0  0  0  0
 27 44  1  0  0  0  0
M  END
> <BIOSOLVEIT.HYDE_ESTIMATED_AFFINITY_LOWER_BOUNDARY [nM]>
254641.349286

> <BIOSOLVEIT.HYDE_ESTIMATED_AFFINITY_UPPER_BOUNDARY [nM]>
25300123.610416

> <BIOSOLVEIT.HYDE_LIGAND_EFFICIENCY range: ++, +, 0, -, -->
--

> <BIOSOLVEIT.HYDE_LIGAND_LIPOPHILIC_EFFICIENCY range: ++, +, 0, -, -->
--

> <BIOSOLVEIT.INTER_CLASH range: red, yellow, green>
green

> <BIOSOLVEIT.INTRA_CLASH range: red, yellow, green>
green

> <BIOSOLVEIT.LOGP>
3.448

> <BIOSOLVEIT.MOLECULAR WEIGHT>
406.271

> <BIOSOLVEIT.MOLECULE_CHECKSUM>
LTE0LjgxNTswLjU0ODcwMw==

> <BIOSOLVEIT.TORSION_QUALITY range: red, yellow, green, not rotatable>
red

> <BIOSOLVEIT.TPSA>
81.93

> <BIOSOLVEIT.SEESAR_FAVORITE>
favorite

> <smc_score>
0.563

> <QED_score>
0.635

> <distance>
0.682

> <SimilarityPheSA_1>
0.677

> <Smiles>
COCCCn1ncc2c(NC(=O)C3Cc4cc(Cl)c(Cl)cc43)nncc21

> <Similarity_SkelSpheres>
0.649

> <Cluster No>
130.0

> <QueryID>
JAN-GHE-5a013bed-2

> <SimilarityPheSA>
0.6768

> <Postera series>
3-aminopyridine-like

> <PDB_code>
Mpro-x10466

> <Approach>
DGM_focussed_RL

> <ID>
20210618_265

> <SimilarityPheSA_2>
0.772

> <OPTIBRIUM.logD>
3.07063

> <OPTIBRIUM.BBB category>
-

> <OPTIBRIUM.logP>
3.07063

> <OPTIBRIUM.P-gp category>
yes

> <OPTIBRIUM.logS>
1.42191

> <OPTIBRIUM.HIA category>
+

> <OPTIBRIUM.PPB90 category>
high

> <OPTIBRIUM.2D6 affinity category>
high

> <OPTIBRIUM.hERG pIC50>
5.37141

> <OPTIBRIUM.2C9 pKi>
5.37379

> <OPTIBRIUM.BBB log([brain]:[blood])>
-0.506323

> <OPTIBRIUM.logS @ pH7.4>
1.42191

$$$$
Compound 512_1_08
haSeeSAR  07122111353D 1   1.00000     0.00000     0
SeeSAR 11.0.2 hazemaj
 44 47  0  0  0  0            999 V2000
   10.5078    2.9063   22.3629 Cl  0  0  0  0  0  0  0  0  0  0  0  0
    8.8870    2.5803   23.0222 C   0  0  0  0  0  0  0  0  0  0  0  0
    8.5667    1.3016   23.4657 C   0  0  0  0  0  0  0  0  0  0  0  0
    7.9579    3.6128   23.0858 C   0  0  0  0  0  0  0  0  0  0  0  0
    9.4837    0.3131   23.3953 O   0  0  0  0  0  0  0  0  0  0  0  0
    7.2961    1.0602   23.9792 C   0  0  0  0  0  0  0  0  0  0  0  0
    6.6953    3.3450   23.6038 C   0  0  0  0  0  0  0  0  0  0  0  0
    9.4136   -0.6473   22.3517 C   0  0  0  0  0  0  0  0  0  0  0  0
    6.9767   -0.2277   24.4246 N   0  0  0  0  0  0  0  0  0  0  0  0
    6.3488    2.0755   24.0539 C   0  0  0  0  0  0  0  0  0  0  0  0
    5.4894    4.6506   23.6948 Cl  0  0  0  0  0  0  0  0  0  0  0  0
    8.6256   -0.0723   21.1860 C   0  0  0  0  0  0  0  0  0  0  0  0
    6.7337   -1.2576   23.6516 N   0  0  0  0  0  0  0  0  0  0  0  0
    6.8700   -0.6114   25.7232 C   0  0  0  0  0  0  0  0  0  0  0  0
    9.1545    0.7387   20.4259 O   0  0  0  0  0  0  0  0  0  0  0  0
    7.3712   -0.4435   20.9884 N   0  0  0  0  0  0  0  0  0  0  0  0
    6.4681   -2.3254   24.3675 C   0  0  0  0  0  0  0  0  0  0  0  0
    6.5506   -1.9351   25.7232 C   0  0  0  0  0  0  0  0  0  0  0  0
    7.0767    0.2634   26.9496 C   0  0  0  0  0  0  0  0  0  0  0  0
    6.6451    0.0862   19.9143 C   0  0  0  0  0  0  0  0  0  0  0  0
    5.4776    0.8263   20.0885 C   0  0  0  0  0  0  0  0  0  0  0  0
    7.1151   -0.1402   18.6247 C   0  0  0  0  0  0  0  0  0  0  0  0
    4.8046    1.3242   18.9790 C   0  0  0  0  0  0  0  0  0  0  0  0
    4.9436    1.0951   21.3455 C   0  0  0  0  0  0  0  0  0  0  0  0
    6.4508    0.3490   17.5669 N   0  0  0  0  0  0  0  0  0  0  0  0
    5.3255    1.0632   17.7156 C   0  0  0  0  0  0  0  0  0  0  0  0
    3.6399    2.0624   19.1640 C   0  0  0  0  0  0  0  0  0  0  0  0
    3.7760    1.8370   21.4918 C   0  0  0  0  0  0  0  0  0  0  0  0
    3.1588    2.2992   20.3937 N   0  0  0  0  0  0  0  0  0  0  0  0
    8.1930    4.5304   22.7652 H   0  0  0  0  0  0  0  0  0  0  0  0
    8.9583   -1.4718   22.6876 H   0  0  0  0  0  0  0  0  0  0  0  0
   10.3381   -0.8774   22.0479 H   0  0  0  0  0  0  0  0  0  0  0  0
    5.4372    1.8966   24.4240 H   0  0  0  0  0  0  0  0  0  0  0  0
    6.9416   -1.1024   21.6059 H   0  0  0  0  0  0  0  0  0  0  0  0
    6.2498   -3.2376   24.0210 H   0  0  0  0  0  0  0  0  0  0  0  0
    6.4037   -2.5160   26.5239 H   0  0  0  0  0  0  0  0  0  0  0  0
    6.9339   -0.2816   27.7757 H   0  0  0  0  0  0  0  0  0  0  0  0
    8.0084    0.6266   26.9467 H   0  0  0  0  0  0  0  0  0  0  0  0
    6.4237    1.0206   26.9329 H   0  0  0  0  0  0  0  0  0  0  0  0
    7.9517   -0.6700   18.4856 H   0  0  0  0  0  0  0  0  0  0  0  0
    5.4088    0.7480   22.1598 H   0  0  0  0  0  0  0  0  0  0  0  0
    4.8538    1.4133   16.9064 H   0  0  0  0  0  0  0  0  0  0  0  0
    3.1537    2.4221   18.3678 H   0  0  0  0  0  0  0  0  0  0  0  0
    3.4025    2.0228   22.4007 H   0  0  0  0  0  0  0  0  0  0  0  0
  1  2  1  0  0  0  0
  2  3  2  0  0  0  0
  2  4  1  0  0  0  0
  3  5  1  0  0  0  0
  3  6  1  0  0  0  0
  4  7  2  0  0  0  0
  5  8  1  0  0  0  0
  6  9  1  0  0  0  0
  6 10  2  0  0  0  0
  7 11  1  0  0  0  0
  8 12  1  0  0  0  0
  9 13  1  0  0  0  0
  9 14  1  0  0  0  0
 12 15  2  0  0  0  0
 12 16  1  0  0  0  0
 13 17  2  0  0  0  0
 14 18  2  0  0  0  0
 14 19  1  0  0  0  0
 16 20  1  0  0  0  0
 20 21  1  0  0  0  0
 20 22  2  0  0  0  0
 21 23  1  0  0  0  0
 21 24  2  0  0  0  0
 22 25  1  0  0  0  0
 23 26  1  0  0  0  0
 23 27  2  0  0  0  0
 24 28  1  0  0  0  0
 27 29  1  0  0  0  0
  7 10  1  0  0  0  0
 17 18  1  0  0  0  0
 25 26  2  0  0  0  0
 28 29  2  0  0  0  0
  4 30  1  0  0  0  0
  8 31  1  0  0  0  0
  8 32  1  0  0  0  0
 10 33  1  0  0  0  0
 16 34  1  0  0  0  0
 17 35  1  0  0  0  0
 18 36  1  0  0  0  0
 19 37  1  0  0  0  0
 19 38  1  0  0  0  0
 19 39  1  0  0  0  0
 22 40  1  0  0  0  0
 24 41  1  0  0  0  0
 26 42  1  0  0  0  0
 27 43  1  0  0  0  0
 28 44  1  0  0  0  0
M  END
> <BIOSOLVEIT.HYDE_ESTIMATED_AFFINITY_LOWER_BOUNDARY [nM]>
255380.396744

> <BIOSOLVEIT.HYDE_ESTIMATED_AFFINITY_UPPER_BOUNDARY [nM]>
25373552.344885

> <BIOSOLVEIT.HYDE_LIGAND_EFFICIENCY range: ++, +, 0, -, -->
--

> <BIOSOLVEIT.HYDE_LIGAND_LIPOPHILIC_EFFICIENCY range: ++, +, 0, -, -->
--

> <BIOSOLVEIT.INTER_CLASH range: red, yellow, green>
green

> <BIOSOLVEIT.INTRA_CLASH range: red, yellow, green>
yellow

> <BIOSOLVEIT.LOGP>
4.44822

> <BIOSOLVEIT.MOLECULAR WEIGHT>
428.278

> <BIOSOLVEIT.MOLECULE_CHECKSUM>
LTE0LjgwNzg7MC41MTA2MTQ=

> <BIOSOLVEIT.TORSION_QUALITY range: red, yellow, green, not rotatable>
red

> <BIOSOLVEIT.TPSA>
81.93

> <BIOSOLVEIT.SEESAR_FAVORITE>
favorite

> <smc_score>
0.563

> <QED_score>
0.508

> <distance>
0.508

> <SimilarityPheSA_1>
0.639

> <Smiles>
Cc1ccnn1-c1cc(Cl)cc(Cl)c1OCC(=O)Nc1cncc2cnccc12

> <Similarity_SkelSpheres>
0.764

> <Cluster No>
273.0

> <QueryID>
MAT-POS-8a69d52e-7

> <SimilarityPheSA>
0.6385

> <Postera series>
3-aminopyridine-like

> <PDB_code>
Mpro-x12073

> <Approach>
DGM_focussed_RL

> <ID>
20210618_511

> <SimilarityPheSA_2>
0.785

> <OPTIBRIUM.logD>
3.5416

> <OPTIBRIUM.BBB category>
-

> <OPTIBRIUM.logP>
3.5416

> <OPTIBRIUM.P-gp category>
no

> <OPTIBRIUM.logS>
-0.166

> <OPTIBRIUM.HIA category>
+

> <OPTIBRIUM.PPB90 category>
high

> <OPTIBRIUM.2D6 affinity category>
medium

> <OPTIBRIUM.hERG pIC50>
4.74146

> <OPTIBRIUM.2C9 pKi>
6.00048

> <OPTIBRIUM.BBB log([brain]:[blood])>
-0.533243

> <OPTIBRIUM.logS @ pH7.4>
-0.166

$$$$
Compound 266_1_09
haSeeSAR  07122111353D 1   1.00000     0.00000     0
SeeSAR 11.0.2 hazemaj
 44 47  0  0  0  0            999 V2000
    9.5939    0.0991   27.3419 Cl  0  0  0  0  0  0  0  0  0  0  0  0
    9.3955   -0.7296   25.7791 C   0  0  0  0  0  0  0  0  0  0  0  0
    8.8703   -2.0151   25.7427 C   0  0  0  0  0  0  0  0  0  0  0  0
    9.7652   -0.0995   24.5981 C   0  0  0  0  0  0  0  0  0  0  0  0
    8.3960   -2.8276   27.2517 Cl  0  0  0  0  0  0  0  0  0  0  0  0
    8.7001   -2.6981   24.5448 C   0  0  0  0  0  0  0  0  0  0  0  0
    9.5895   -0.7964   23.4087 C   0  0  0  0  0  0  0  0  0  0  0  0
    9.0689   -2.0614   23.3673 C   0  0  0  0  0  0  0  0  0  0  0  0
    9.7326   -0.8246   21.8983 C   0  0  1  0  0  0  0  0  0  0  0  0
    9.1668   -2.2195   21.8697 C   0  0  0  0  0  0  0  0  0  0  0  0
    8.7887    0.1409   21.1954 C   0  0  0  0  0  0  0  0  0  0  0  0
    9.2117    1.2167   20.7722 O   0  0  0  0  0  0  0  0  0  0  0  0
    7.5138   -0.1762   21.0394 N   0  0  0  0  0  0  0  0  0  0  0  0
    6.8012    0.3104   19.9361 C   0  0  0  0  0  0  0  0  0  0  0  0
    7.2294    0.0895   18.6834 N   0  0  0  0  0  0  0  0  0  0  0  0
    5.6293    1.0365   20.1234 C   0  0  0  0  0  0  0  0  0  0  0  0
    6.5874    0.5312   17.6518 N   0  0  0  0  0  0  0  0  0  0  0  0
    4.9416    1.5118   19.0355 C   0  0  0  0  0  0  0  0  0  0  0  0
    4.8895    1.4439   21.2595 C   0  0  0  0  0  0  0  0  0  0  0  0
    5.4555    1.2381   17.7714 C   0  0  0  0  0  0  0  0  0  0  0  0
    3.8492    2.1666   19.5249 N   0  0  0  0  0  0  0  0  0  0  0  0
    3.8400    2.1125   20.8364 N   0  0  0  0  0  0  0  0  0  0  0  0
    2.8236    2.8333   18.7077 C   0  0  0  0  0  0  0  0  0  0  0  0
    1.9453    3.6945   19.6006 C   0  0  0  0  0  0  0  0  0  0  0  0
    0.5953    3.0208   19.7850 C   0  0  0  0  0  0  0  0  0  0  0  0
   -0.2219    3.8206   20.6270 O   0  0  0  0  0  0  0  0  0  0  0  0
    0.5518    4.3074   21.7136 C   0  0  0  0  0  0  0  0  0  0  0  0
   10.1455    0.8253   24.6034 H   0  0  0  0  0  0  0  0  0  0  0  0
    8.3219   -3.6237   24.5310 H   0  0  0  0  0  0  0  0  0  0  0  0
   10.6793   -0.7663   21.5812 H   0  0  0  0  0  0  0  0  0  0  0  0
    8.2930   -2.3156   21.3929 H   0  0  0  0  0  0  0  0  0  0  0  0
    9.7975   -2.9293   21.5560 H   0  0  0  0  0  0  0  0  0  0  0  0
    7.0590   -0.7631   21.7090 H   0  0  0  0  0  0  0  0  0  0  0  0
    5.1236    1.2567   22.2135 H   0  0  0  0  0  0  0  0  0  0  0  0
    4.9815    1.5681   16.9549 H   0  0  0  0  0  0  0  0  0  0  0  0
    2.2609    2.1441   18.2515 H   0  0  0  0  0  0  0  0  0  0  0  0
    3.2671    3.4094   18.0210 H   0  0  0  0  0  0  0  0  0  0  0  0
    1.8155    4.5906   19.1762 H   0  0  0  0  0  0  0  0  0  0  0  0
    2.3854    3.8081   20.4914 H   0  0  0  0  0  0  0  0  0  0  0  0
    0.7257    2.1218   20.2032 H   0  0  0  0  0  0  0  0  0  0  0  0
    0.1522    2.9131   18.8950 H   0  0  0  0  0  0  0  0  0  0  0  0
   -0.0236    4.8705   22.3067 H   0  0  0  0  0  0  0  0  0  0  0  0
    0.9148    3.5360   22.2363 H   0  0  0  0  0  0  0  0  0  0  0  0
    1.3092    4.8583   21.3632 H   0  0  0  0  0  0  0  0  0  0  0  0
  1  2  1  0  0  0  0
  2  3  2  0  0  0  0
  2  4  1  0  0  0  0
  3  5  1  0  0  0  0
  3  6  1  0  0  0  0
  4  7  2  0  0  0  0
  6  8  2  0  0  0  0
  7  9  1  0  0  0  0
  8 10  1  0  0  0  0
  9 11  1  0  0  0  0
 11 12  2  0  0  0  0
 11 13  1  0  0  0  0
 13 14  1  0  0  0  0
 14 15  2  0  0  0  0
 14 16  1  0  0  0  0
 15 17  1  0  0  0  0
 16 18  2  0  0  0  0
 16 19  1  0  0  0  0
 17 20  2  0  0  0  0
 18 21  1  0  0  0  0
 19 22  2  0  0  0  0
 21 23  1  0  0  0  0
 23 24  1  0  0  0  0
 24 25  1  0  0  0  0
 25 26  1  0  0  0  0
 26 27  1  0  0  0  0
  7  8  1  0  0  0  0
  9 10  1  0  0  0  0
 18 20  1  0  0  0  0
 21 22  1  0  0  0  0
  4 28  1  0  0  0  0
  6 29  1  0  0  0  0
  9 30  1  0  0  0  0
 10 31  1  0  0  0  0
 10 32  1  0  0  0  0
 13 33  1  0  0  0  0
 19 34  1  0  0  0  0
 20 35  1  0  0  0  0
 23 36  1  0  0  0  0
 23 37  1  0  0  0  0
 24 38  1  0  0  0  0
 24 39  1  0  0  0  0
 25 40  1  0  0  0  0
 25 41  1  0  0  0  0
 27 42  1  0  0  0  0
 27 43  1  0  0  0  0
 27 44  1  0  0  0  0
M  END
> <BIOSOLVEIT.HYDE_ESTIMATED_AFFINITY_LOWER_BOUNDARY [nM]>
293698.267201

> <BIOSOLVEIT.HYDE_ESTIMATED_AFFINITY_UPPER_BOUNDARY [nM]>
29180659.328031

> <BIOSOLVEIT.HYDE_LIGAND_EFFICIENCY range: ++, +, 0, -, -->
--

> <BIOSOLVEIT.HYDE_LIGAND_LIPOPHILIC_EFFICIENCY range: ++, +, 0, -, -->
--

> <BIOSOLVEIT.INTER_CLASH range: red, yellow, green>
green

> <BIOSOLVEIT.INTRA_CLASH range: red, yellow, green>
green

> <BIOSOLVEIT.LOGP>
3.448

> <BIOSOLVEIT.MOLECULAR WEIGHT>
406.271

> <BIOSOLVEIT.MOLECULE_CHECKSUM>
LTE0LjQ2MTM7MC41MzU2MDI=

> <BIOSOLVEIT.TORSION_QUALITY range: red, yellow, green, not rotatable>
red

> <BIOSOLVEIT.TPSA>
81.93

> <BIOSOLVEIT.SEESAR_FAVORITE>
favorite

> <smc_score>
0.563

> <QED_score>
0.635

> <distance>
0.682

> <SimilarityPheSA_1>
0.677

> <Smiles>
COCCCn1ncc2c(NC(=O)C3Cc4cc(Cl)c(Cl)cc43)nncc21

> <Similarity_SkelSpheres>
0.649

> <Cluster No>
130.0

> <QueryID>
JAN-GHE-5a013bed-2

> <SimilarityPheSA>
0.6768

> <Postera series>
3-aminopyridine-like

> <PDB_code>
Mpro-x10466

> <Approach>
DGM_focussed_RL

> <ID>
20210618_265

> <SimilarityPheSA_2>
0.772

> <OPTIBRIUM.logD>
3.07063

> <OPTIBRIUM.BBB category>
-

> <OPTIBRIUM.logP>
3.07063

> <OPTIBRIUM.P-gp category>
yes

> <OPTIBRIUM.logS>
1.42191

> <OPTIBRIUM.HIA category>
+

> <OPTIBRIUM.PPB90 category>
high

> <OPTIBRIUM.2D6 affinity category>
high

> <OPTIBRIUM.hERG pIC50>
5.37141

> <OPTIBRIUM.2C9 pKi>
5.37379

> <OPTIBRIUM.BBB log([brain]:[blood])>
-0.506323

> <OPTIBRIUM.logS @ pH7.4>
1.42191

$$$$
Compound 266_1_02
haSeeSAR  07122111353D 1   1.00000     0.00000     0
SeeSAR 11.0.2 hazemaj
 44 47  0  0  0  0            999 V2000
    9.5937    0.0988   27.3419 Cl  0  0  0  0  0  0  0  0  0  0  0  0
    9.3954   -0.7298   25.7790 C   0  0  0  0  0  0  0  0  0  0  0  0
    8.8701   -2.0153   25.7426 C   0  0  0  0  0  0  0  0  0  0  0  0
    9.7652   -0.0997   24.5982 C   0  0  0  0  0  0  0  0  0  0  0  0
    8.3958   -2.8279   27.2515 Cl  0  0  0  0  0  0  0  0  0  0  0  0
    8.7000   -2.6983   24.5446 C   0  0  0  0  0  0  0  0  0  0  0  0
    9.5895   -0.7965   23.4087 C   0  0  0  0  0  0  0  0  0  0  0  0
    9.0690   -2.0615   23.3672 C   0  0  0  0  0  0  0  0  0  0  0  0
    9.7327   -0.8247   21.8982 C   0  0  1  0  0  0  0  0  0  0  0  0
    9.1669   -2.2194   21.8696 C   0  0  0  0  0  0  0  0  0  0  0  0
    8.7889    0.1409   21.1954 C   0  0  0  0  0  0  0  0  0  0  0  0
    9.2119    1.2167   20.7722 O   0  0  0  0  0  0  0  0  0  0  0  0
    7.5140   -0.1761   21.0393 N   0  0  0  0  0  0  0  0  0  0  0  0
    6.8013    0.3105   19.9362 C   0  0  0  0  0  0  0  0  0  0  0  0
    7.2294    0.0894   18.6834 N   0  0  0  0  0  0  0  0  0  0  0  0
    5.6294    1.0366   20.1234 C   0  0  0  0  0  0  0  0  0  0  0  0
    6.5875    0.5312   17.6518 N   0  0  0  0  0  0  0  0  0  0  0  0
    4.9417    1.5119   19.0356 C   0  0  0  0  0  0  0  0  0  0  0  0
    4.8897    1.4441   21.2595 C   0  0  0  0  0  0  0  0  0  0  0  0
    5.4556    1.2381   17.7713 C   0  0  0  0  0  0  0  0  0  0  0  0
    3.8493    2.1667   19.5248 N   0  0  0  0  0  0  0  0  0  0  0  0
    3.8402    2.1128   20.8363 N   0  0  0  0  0  0  0  0  0  0  0  0
    2.8238    2.8335   18.7076 C   0  0  0  0  0  0  0  0  0  0  0  0
    1.9451    3.6942   19.6005 C   0  0  0  0  0  0  0  0  0  0  0  0
    0.5955    3.0197   19.7852 C   0  0  0  0  0  0  0  0  0  0  0  0
   -0.2219    3.8191   20.6272 O   0  0  0  0  0  0  0  0  0  0  0  0
    0.5471    4.2912   21.7236 C   0  0  0  0  0  0  0  0  0  0  0  0
   10.1454    0.8251   24.6035 H   0  0  0  0  0  0  0  0  0  0  0  0
    8.3219   -3.6240   24.5308 H   0  0  0  0  0  0  0  0  0  0  0  0
   10.6793   -0.7664   21.5813 H   0  0  0  0  0  0  0  0  0  0  0  0
    8.2931   -2.3156   21.3928 H   0  0  0  0  0  0  0  0  0  0  0  0
    9.7976   -2.9292   21.5559 H   0  0  0  0  0  0  0  0  0  0  0  0
    7.0590   -0.7631   21.7091 H   0  0  0  0  0  0  0  0  0  0  0  0
    5.1238    1.2569   22.2135 H   0  0  0  0  0  0  0  0  0  0  0  0
    4.9815    1.5680   16.9549 H   0  0  0  0  0  0  0  0  0  0  0  0
    2.2613    2.1441   18.2511 H   0  0  0  0  0  0  0  0  0  0  0  0
    3.2674    3.4097   18.0212 H   0  0  0  0  0  0  0  0  0  0  0  0
    1.8147    4.5902   19.1760 H   0  0  0  0  0  0  0  0  0  0  0  0
    2.3853    3.8083   20.4912 H   0  0  0  0  0  0  0  0  0  0  0  0
    0.7265    2.1208   20.2035 H   0  0  0  0  0  0  0  0  0  0  0  0
    0.1523    2.9117   18.8952 H   0  0  0  0  0  0  0  0  0  0  0  0
   -0.0285    4.8542   22.3167 H   0  0  0  0  0  0  0  0  0  0  0  0
    0.9000    3.5129   22.2430 H   0  0  0  0  0  0  0  0  0  0  0  0
    1.3114    4.8390   21.3834 H   0  0  0  0  0  0  0  0  0  0  0  0
  1  2  1  0  0  0  0
  2  3  2  0  0  0  0
  2  4  1  0  0  0  0
  3  5  1  0  0  0  0
  3  6  1  0  0  0  0
  4  7  2  0  0  0  0
  6  8  2  0  0  0  0
  7  9  1  0  0  0  0
  8 10  1  0  0  0  0
  9 11  1  0  0  0  0
 11 12  2  0  0  0  0
 11 13  1  0  0  0  0
 13 14  1  0  0  0  0
 14 15  2  0  0  0  0
 14 16  1  0  0  0  0
 15 17  1  0  0  0  0
 16 18  2  0  0  0  0
 16 19  1  0  0  0  0
 17 20  2  0  0  0  0
 18 21  1  0  0  0  0
 19 22  2  0  0  0  0
 21 23  1  0  0  0  0
 23 24  1  0  0  0  0
 24 25  1  0  0  0  0
 25 26  1  0  0  0  0
 26 27  1  0  0  0  0
  7  8  1  0  0  0  0
  9 10  1  0  0  0  0
 18 20  1  0  0  0  0
 21 22  1  0  0  0  0
  4 28  1  0  0  0  0
  6 29  1  0  0  0  0
  9 30  1  0  0  0  0
 10 31  1  0  0  0  0
 10 32  1  0  0  0  0
 13 33  1  0  0  0  0
 19 34  1  0  0  0  0
 20 35  1  0  0  0  0
 23 36  1  0  0  0  0
 23 37  1  0  0  0  0
 24 38  1  0  0  0  0
 24 39  1  0  0  0  0
 25 40  1  0  0  0  0
 25 41  1  0  0  0  0
 27 42  1  0  0  0  0
 27 43  1  0  0  0  0
 27 44  1  0  0  0  0
M  END
> <BIOSOLVEIT.HYDE_ESTIMATED_AFFINITY_LOWER_BOUNDARY [nM]>
294489.026445

> <BIOSOLVEIT.HYDE_ESTIMATED_AFFINITY_UPPER_BOUNDARY [nM]>
29259225.934267

> <BIOSOLVEIT.HYDE_LIGAND_EFFICIENCY range: ++, +, 0, -, -->
--

> <BIOSOLVEIT.HYDE_LIGAND_LIPOPHILIC_EFFICIENCY range: ++, +, 0, -, -->
--

> <BIOSOLVEIT.INTER_CLASH range: red, yellow, green>
green

> <BIOSOLVEIT.INTRA_CLASH range: red, yellow, green>
green

> <BIOSOLVEIT.LOGP>
3.448

> <BIOSOLVEIT.MOLECULAR WEIGHT>
406.271

> <BIOSOLVEIT.MOLECULE_CHECKSUM>
LTE0LjQ1NDY7MC41MzUzNTU=

> <BIOSOLVEIT.TORSION_QUALITY range: red, yellow, green, not rotatable>
red

> <BIOSOLVEIT.TPSA>
81.93

> <BIOSOLVEIT.SEESAR_FAVORITE>
favorite

> <smc_score>
0.563

> <QED_score>
0.635

> <distance>
0.682

> <SimilarityPheSA_1>
0.677

> <Smiles>
COCCCn1ncc2c(NC(=O)C3Cc4cc(Cl)c(Cl)cc43)nncc21

> <Similarity_SkelSpheres>
0.649

> <Cluster No>
130.0

> <QueryID>
JAN-GHE-5a013bed-2

> <SimilarityPheSA>
0.6768

> <Postera series>
3-aminopyridine-like

> <PDB_code>
Mpro-x10466

> <Approach>
DGM_focussed_RL

> <ID>
20210618_265

> <SimilarityPheSA_2>
0.772

> <OPTIBRIUM.logD>
3.07063

> <OPTIBRIUM.BBB category>
-

> <OPTIBRIUM.logP>
3.07063

> <OPTIBRIUM.P-gp category>
yes

> <OPTIBRIUM.logS>
1.42191

> <OPTIBRIUM.HIA category>
+

> <OPTIBRIUM.PPB90 category>
high

> <OPTIBRIUM.2D6 affinity category>
high

> <OPTIBRIUM.hERG pIC50>
5.37141

> <OPTIBRIUM.2C9 pKi>
5.37379

> <OPTIBRIUM.BBB log([brain]:[blood])>
-0.506323

> <OPTIBRIUM.logS @ pH7.4>
1.42191

$$$$
Compound 654_1_4
haSeeSAR  07122111353D 1   1.00000     0.00000     0
SeeSAR 11.0.2 hazemaj
 43 46  0  0  0  0            999 V2000
    2.3883    4.1279   25.8927 Cl  0  0  0  0  0  0  0  0  0  0  0  0
    2.6683    4.8151   24.2758 C   0  0  0  0  0  0  0  0  0  0  0  0
    2.5337    3.9961   23.1625 C   0  0  0  0  0  0  0  0  0  0  0  0
    3.0106    6.1568   24.1620 C   0  0  0  0  0  0  0  0  0  0  0  0
    2.2092    2.7037   23.0048 O   0  0  0  0  0  0  0  0  0  0  0  0
    2.7595    4.5949   21.9488 C   0  0  0  0  0  0  0  0  0  0  0  0
    3.2336    6.7251   22.9124 C   0  0  0  0  0  0  0  0  0  0  0  0
    1.6967    2.5856   21.6938 C   0  0  0  0  0  0  0  0  0  0  0  0
    3.1055    5.9302   21.7792 C   0  0  0  0  0  0  0  0  0  0  0  0
    2.5558    3.5347   20.8905 C   0  0  2  0  0  0  0  0  0  0  0  0
    3.6787    8.4404   22.7477 Cl  0  0  0  0  0  0  0  0  0  0  0  0
    3.8676    2.8838   20.4823 C   0  0  0  0  0  0  0  0  0  0  0  0
    4.9302    3.2966   20.9469 O   0  0  0  0  0  0  0  0  0  0  0  0
    3.8672    1.8739   19.6278 N   0  0  0  0  0  0  0  0  0  0  0  0
    5.0748    1.2747   19.2521 C   0  0  0  0  0  0  0  0  0  0  0  0
    5.8542    0.6637   20.2251 C   0  0  0  0  0  0  0  0  0  0  0  0
    5.5166    1.2818   17.9335 C   0  0  0  0  0  0  0  0  0  0  0  0
    7.0412    0.0630   19.8929 C   0  0  0  0  0  0  0  0  0  0  0  0
    5.6659    0.5180   21.7211 C   0  0  0  0  0  0  0  0  0  0  0  0
    6.6835    0.6962   17.6251 N   0  0  0  0  0  0  0  0  0  0  0  0
    7.6329   -0.4610   21.0461 N   0  0  0  0  0  0  0  0  0  0  0  0
    7.4391    0.0976   18.5592 C   0  0  0  0  0  0  0  0  0  0  0  0
    6.5935   -0.6229   22.0589 C   0  0  0  0  0  0  0  0  0  0  0  0
    9.0604   -0.7638   21.2284 C   0  0  0  0  0  0  0  0  0  0  0  0
    9.7477    0.4168   21.8949 C   0  0  0  0  0  0  0  0  0  0  0  0
    9.4779    1.5997   21.1570 O   0  0  0  0  0  0  0  0  0  0  0  0
    3.0971    6.7183   24.9849 H   0  0  0  0  0  0  0  0  0  0  0  0
    0.7353    2.8586   21.6602 H   0  0  0  0  0  0  0  0  0  0  0  0
    1.7890    1.6484   21.3573 H   0  0  0  0  0  0  0  0  0  0  0  0
    3.2581    6.3091   20.8664 H   0  0  0  0  0  0  0  0  0  0  0  0
    2.0630    3.8958   20.0988 H   0  0  0  0  0  0  0  0  0  0  0  0
    3.0040    1.5386   19.2504 H   0  0  0  0  0  0  0  0  0  0  0  0
    4.9688    1.7201   17.2209 H   0  0  0  0  0  0  0  0  0  0  0  0
    4.7181    0.2913   21.9453 H   0  0  0  0  0  0  0  0  0  0  0  0
    5.9313    1.3538   22.2017 H   0  0  0  0  0  0  0  0  0  0  0  0
    8.3025   -0.3307   18.2926 H   0  0  0  0  0  0  0  0  0  0  0  0
    6.1332   -1.5064   21.9722 H   0  0  0  0  0  0  0  0  0  0  0  0
    6.9657   -0.5302   22.9824 H   0  0  0  0  0  0  0  0  0  0  0  0
    9.4812   -0.9351   20.3376 H   0  0  0  0  0  0  0  0  0  0  0  0
    9.1581   -1.5751   21.8048 H   0  0  0  0  0  0  0  0  0  0  0  0
   10.7346    0.2573   21.9199 H   0  0  0  0  0  0  0  0  0  0  0  0
    9.4029    0.5201   22.8278 H   0  0  0  0  0  0  0  0  0  0  0  0
    8.6810    2.0612   21.5468 H   0  0  0  0  0  0  0  0  0  0  0  0
  1  2  1  0  0  0  0
  2  3  2  0  0  0  0
  2  4  1  0  0  0  0
  3  5  1  0  0  0  0
  3  6  1  0  0  0  0
  4  7  2  0  0  0  0
  5  8  1  0  0  0  0
  6  9  2  0  0  0  0
  6 10  1  0  0  0  0
  7 11  1  0  0  0  0
 10 12  1  0  0  0  0
 12 13  2  0  0  0  0
 12 14  1  0  0  0  0
 14 15  1  0  0  0  0
 15 16  2  0  0  0  0
 15 17  1  0  0  0  0
 16 18  1  0  0  0  0
 16 19  1  0  0  0  0
 17 20  2  0  0  0  0
 18 21  1  0  0  0  0
 18 22  2  0  0  0  0
 19 23  1  0  0  0  0
 21 24  1  0  0  0  0
 24 25  1  0  0  0  0
 25 26  1  0  0  0  0
  7  9  1  0  0  0  0
  8 10  1  0  0  0  0
 20 22  1  0  0  0  0
 21 23  1  0  0  0  0
  4 27  1  0  0  0  0
  8 28  1  0  0  0  0
  8 29  1  0  0  0  0
  9 30  1  0  0  0  0
 10 31  1  0  0  0  0
 14 32  1  0  0  0  0
 17 33  1  0  0  0  0
 19 34  1  0  0  0  0
 19 35  1  0  0  0  0
 22 36  1  0  0  0  0
 23 37  1  0  0  0  0
 23 38  1  0  0  0  0
 24 39  1  0  0  0  0
 24 40  1  0  0  0  0
 25 41  1  0  0  0  0
 25 42  1  0  0  0  0
 26 43  1  0  0  0  0
M  END
> <BIOSOLVEIT.HYDE_ESTIMATED_AFFINITY_LOWER_BOUNDARY [nM]>
295271.924266

> <BIOSOLVEIT.HYDE_ESTIMATED_AFFINITY_UPPER_BOUNDARY [nM]>
29337011.461579

> <BIOSOLVEIT.HYDE_LIGAND_EFFICIENCY range: ++, +, 0, -, -->
--

> <BIOSOLVEIT.HYDE_LIGAND_LIPOPHILIC_EFFICIENCY range: ++, +, 0, -, -->
--

> <BIOSOLVEIT.INTER_CLASH range: red, yellow, green>
green

> <BIOSOLVEIT.INTRA_CLASH range: red, yellow, green>
green

> <BIOSOLVEIT.LOGP>
2.8579

> <BIOSOLVEIT.MOLECULAR WEIGHT>
394.256

> <BIOSOLVEIT.MOLECULE_CHECKSUM>
LTE0LjQ0ODswLjU1NTY5Mg==

> <BIOSOLVEIT.TORSION_QUALITY range: red, yellow, green, not rotatable>
green

> <BIOSOLVEIT.TPSA>
74.69

> <BIOSOLVEIT.SEESAR_FAVORITE>
favorite

> <smc_score>
1.0

> <QED_score>
0.834

> <distance>
0.529

> <SimilarityPheSA_1>
0.633

> <Smiles>
O=C(Nc1cncc2c1CCN2CCO)C1COc2c(Cl)cc(Cl)cc21

> <Similarity_SkelSpheres>
0.667

> <Cluster No>
362.0

> <QueryID>
JAN-GHE-5a013bed-2

> <SimilarityPheSA>
0.6332

> <Postera series>
3-aminopyridine-like

> <PDB_code>
Mpro-x10466

> <Approach>
DGM_focussed_RL

> <ID>
20210618_653

> <SimilarityPheSA_2>
0.83

> <OPTIBRIUM.logD>
2.4757

> <OPTIBRIUM.BBB category>
-

> <OPTIBRIUM.logP>
2.37755

> <OPTIBRIUM.P-gp category>
yes

> <OPTIBRIUM.logS>
2.72988

> <OPTIBRIUM.HIA category>
+

> <OPTIBRIUM.PPB90 category>
high

> <OPTIBRIUM.2D6 affinity category>
high

> <OPTIBRIUM.hERG pIC50>
4.66766

> <OPTIBRIUM.2C9 pKi>
5.65482

> <OPTIBRIUM.BBB log([brain]:[blood])>
-0.349616

> <OPTIBRIUM.logS @ pH7.4>
0.738522

$$$$
Compound 654_1_2
haSeeSAR  07122111353D 1   1.00000     0.00000     0
SeeSAR 11.0.2 hazemaj
 43 46  0  0  0  0            999 V2000
    2.3898    4.1303   25.8910 Cl  0  0  0  0  0  0  0  0  0  0  0  0
    2.6663    4.8151   24.2726 C   0  0  0  0  0  0  0  0  0  0  0  0
    2.5352    3.9930   23.1611 C   0  0  0  0  0  0  0  0  0  0  0  0
    3.0026    6.1580   24.1557 C   0  0  0  0  0  0  0  0  0  0  0  0
    2.2164    2.6989   23.0063 O   0  0  0  0  0  0  0  0  0  0  0  0
    2.7580    4.5900   21.9460 C   0  0  0  0  0  0  0  0  0  0  0  0
    3.2230    6.7244   22.9047 C   0  0  0  0  0  0  0  0  0  0  0  0
    1.7041    2.5755   21.6957 C   0  0  0  0  0  0  0  0  0  0  0  0
    3.0981    5.9265   21.7734 C   0  0  0  0  0  0  0  0  0  0  0  0
    2.5588    3.5266   20.8901 C   0  0  2  0  0  0  0  0  0  0  0  0
    3.6603    8.4414   22.7362 Cl  0  0  0  0  0  0  0  0  0  0  0  0
    3.8733    2.8807   20.4831 C   0  0  0  0  0  0  0  0  0  0  0  0
    4.9342    3.2996   20.9461 O   0  0  0  0  0  0  0  0  0  0  0  0
    3.8772    1.8683   19.6315 N   0  0  0  0  0  0  0  0  0  0  0  0
    5.0873    1.2736   19.2568 C   0  0  0  0  0  0  0  0  0  0  0  0
    5.8708    0.6703   20.2314 C   0  0  0  0  0  0  0  0  0  0  0  0
    5.5277    1.2776   17.9378 C   0  0  0  0  0  0  0  0  0  0  0  0
    7.0603    0.0742   19.9003 C   0  0  0  0  0  0  0  0  0  0  0  0
    5.6847    0.5296   21.7281 C   0  0  0  0  0  0  0  0  0  0  0  0
    6.6971    0.6965   17.6304 N   0  0  0  0  0  0  0  0  0  0  0  0
    7.6557   -0.4424   21.0549 N   0  0  0  0  0  0  0  0  0  0  0  0
    7.4566    0.1054   18.5660 C   0  0  0  0  0  0  0  0  0  0  0  0
    6.6183   -0.6054   22.0695 C   0  0  0  0  0  0  0  0  0  0  0  0
    9.0850   -0.7374   21.2369 C   0  0  0  0  0  0  0  0  0  0  0  0
    9.7635    0.4419   21.9146 C   0  0  0  0  0  0  0  0  0  0  0  0
    9.5186    1.6233   21.1658 O   0  0  0  0  0  0  0  0  0  0  0  0
    3.0869    6.7217   24.9774 H   0  0  0  0  0  0  0  0  0  0  0  0
    0.7415    2.8443   21.6618 H   0  0  0  0  0  0  0  0  0  0  0  0
    1.8005    1.6381   21.3614 H   0  0  0  0  0  0  0  0  0  0  0  0
    3.2488    6.3040   20.8597 H   0  0  0  0  0  0  0  0  0  0  0  0
    2.0642    3.8836   20.0978 H   0  0  0  0  0  0  0  0  0  0  0  0
    3.0153    1.5279   19.2554 H   0  0  0  0  0  0  0  0  0  0  0  0
    4.9771    1.7105   17.2240 H   0  0  0  0  0  0  0  0  0  0  0  0
    4.7382    0.2991   21.9543 H   0  0  0  0  0  0  0  0  0  0  0  0
    5.9465    1.3686   22.2052 H   0  0  0  0  0  0  0  0  0  0  0  0
    8.3218   -0.3197   18.3001 H   0  0  0  0  0  0  0  0  0  0  0  0
    6.1622   -1.4914   21.9867 H   0  0  0  0  0  0  0  0  0  0  0  0
    6.9910   -0.5071   22.9923 H   0  0  0  0  0  0  0  0  0  0  0  0
    9.5084   -0.8983   20.3454 H   0  0  0  0  0  0  0  0  0  0  0  0
    9.1871   -1.5530   21.8064 H   0  0  0  0  0  0  0  0  0  0  0  0
   10.7485    0.2766   21.9637 H   0  0  0  0  0  0  0  0  0  0  0  0
    9.3974    0.5511   22.8388 H   0  0  0  0  0  0  0  0  0  0  0  0
    9.9114    2.4086   21.6442 H   0  0  0  0  0  0  0  0  0  0  0  0
  1  2  1  0  0  0  0
  2  3  2  0  0  0  0
  2  4  1  0  0  0  0
  3  5  1  0  0  0  0
  3  6  1  0  0  0  0
  4  7  2  0  0  0  0
  5  8  1  0  0  0  0
  6  9  2  0  0  0  0
  6 10  1  0  0  0  0
  7 11  1  0  0  0  0
 10 12  1  0  0  0  0
 12 13  2  0  0  0  0
 12 14  1  0  0  0  0
 14 15  1  0  0  0  0
 15 16  2  0  0  0  0
 15 17  1  0  0  0  0
 16 18  1  0  0  0  0
 16 19  1  0  0  0  0
 17 20  2  0  0  0  0
 18 21  1  0  0  0  0
 18 22  2  0  0  0  0
 19 23  1  0  0  0  0
 21 24  1  0  0  0  0
 24 25  1  0  0  0  0
 25 26  1  0  0  0  0
  7  9  1  0  0  0  0
  8 10  1  0  0  0  0
 20 22  1  0  0  0  0
 21 23  1  0  0  0  0
  4 27  1  0  0  0  0
  8 28  1  0  0  0  0
  8 29  1  0  0  0  0
  9 30  1  0  0  0  0
 10 31  1  0  0  0  0
 14 32  1  0  0  0  0
 17 33  1  0  0  0  0
 19 34  1  0  0  0  0
 19 35  1  0  0  0  0
 22 36  1  0  0  0  0
 23 37  1  0  0  0  0
 23 38  1  0  0  0  0
 24 39  1  0  0  0  0
 24 40  1  0  0  0  0
 25 41  1  0  0  0  0
 25 42  1  0  0  0  0
 26 43  1  0  0  0  0
M  END
> <BIOSOLVEIT.HYDE_ESTIMATED_AFFINITY_LOWER_BOUNDARY [nM]>
295815.013213

> <BIOSOLVEIT.HYDE_ESTIMATED_AFFINITY_UPPER_BOUNDARY [nM]>
29390970.559458

> <BIOSOLVEIT.HYDE_LIGAND_EFFICIENCY range: ++, +, 0, -, -->
--

> <BIOSOLVEIT.HYDE_LIGAND_LIPOPHILIC_EFFICIENCY range: ++, +, 0, -, -->
--

> <BIOSOLVEIT.INTER_CLASH range: red, yellow, green>
green

> <BIOSOLVEIT.INTRA_CLASH range: red, yellow, green>
green

> <BIOSOLVEIT.LOGP>
2.8579

> <BIOSOLVEIT.MOLECULAR WEIGHT>
394.256

> <BIOSOLVEIT.MOLECULE_CHECKSUM>
LTE0LjQ0MzQ7MC41NTU1MTc=

> <BIOSOLVEIT.TORSION_QUALITY range: red, yellow, green, not rotatable>
green

> <BIOSOLVEIT.TPSA>
74.69

> <BIOSOLVEIT.SEESAR_FAVORITE>
favorite

> <smc_score>
1.0

> <QED_score>
0.834

> <distance>
0.529

> <SimilarityPheSA_1>
0.633

> <Smiles>
O=C(Nc1cncc2c1CCN2CCO)C1COc2c(Cl)cc(Cl)cc21

> <Similarity_SkelSpheres>
0.667

> <Cluster No>
362.0

> <QueryID>
JAN-GHE-5a013bed-2

> <SimilarityPheSA>
0.6332

> <Postera series>
3-aminopyridine-like

> <PDB_code>
Mpro-x10466

> <Approach>
DGM_focussed_RL

> <ID>
20210618_653

> <SimilarityPheSA_2>
0.83

> <OPTIBRIUM.logD>
2.4757

> <OPTIBRIUM.BBB category>
-

> <OPTIBRIUM.logP>
2.37755

> <OPTIBRIUM.P-gp category>
yes

> <OPTIBRIUM.logS>
2.72988

> <OPTIBRIUM.HIA category>
+

> <OPTIBRIUM.PPB90 category>
high

> <OPTIBRIUM.2D6 affinity category>
high

> <OPTIBRIUM.hERG pIC50>
4.66766

> <OPTIBRIUM.2C9 pKi>
5.65482

> <OPTIBRIUM.BBB log([brain]:[blood])>
-0.349616

> <OPTIBRIUM.logS @ pH7.4>
0.738522

$$$$
Compound 3_1_01
haSeeSAR  07122111353D 1   1.00000     0.00000     0
SeeSAR 11.0.2 hazemaj
 44 47  0  0  0  0            999 V2000
    6.1549   -0.9749   26.2485 Cl  0  0  0  0  0  0  0  0  0  0  0  0
    6.7170    0.6824   25.9305 C   0  0  0  0  0  0  0  0  0  0  0  0
    6.9342    1.5418   27.0025 C   0  0  0  0  0  0  0  0  0  0  0  0
    6.9343    1.1230   24.6331 C   0  0  0  0  0  0  0  0  0  0  0  0
    6.6666    0.9939   28.6743 Cl  0  0  0  0  0  0  0  0  0  0  0  0
    7.3613    2.8480   26.7948 C   0  0  0  0  0  0  0  0  0  0  0  0
    7.3677    2.4249   24.4442 C   0  0  0  0  0  0  0  0  0  0  0  0
    7.5668    3.2957   25.4927 C   0  0  0  0  0  0  0  0  0  0  0  0
    7.6824    3.1450   23.1472 C   0  0  2  0  0  0  0  0  0  0  0  0
    7.9750    4.6412   24.9227 C   0  0  0  0  0  0  0  0  0  0  0  0
    8.3858    2.2477   22.1405 C   0  0  0  0  0  0  0  0  0  0  0  0
    8.5654    4.3006   23.5715 C   0  0  0  0  0  0  0  0  0  0  0  0
    8.2852    2.4775   20.9354 O   0  0  0  0  0  0  0  0  0  0  0  0
    9.1060    1.2202   22.5601 N   0  0  0  0  0  0  0  0  0  0  0  0
    9.7859    0.3530   21.5873 C   0  0  0  0  0  0  0  0  0  0  0  0
    8.8617   -0.7873   21.1923 C   0  0  0  0  0  0  0  0  0  0  0  0
    7.5128   -0.3493   21.2627 O   0  0  0  0  0  0  0  0  0  0  0  0
    6.8944    0.1140   20.1545 C   0  0  0  0  0  0  0  0  0  0  0  0
    5.6910    0.8128   20.2130 C   0  0  0  0  0  0  0  0  0  0  0  0
    7.4834   -0.1166   18.9161 C   0  0  0  0  0  0  0  0  0  0  0  0
    5.0779    1.0637   21.3819 N   0  0  0  0  0  0  0  0  0  0  0  0
    5.1170    1.2585   19.0255 C   0  0  0  0  0  0  0  0  0  0  0  0
    6.9058    0.3245   17.7887 N   0  0  0  0  0  0  0  0  0  0  0  0
    3.9198    1.7361   21.4609 C   0  0  0  0  0  0  0  0  0  0  0  0
    5.7474    1.0003   17.8122 C   0  0  0  0  0  0  0  0  0  0  0  0
    3.9157    1.9569   19.0773 C   0  0  0  0  0  0  0  0  0  0  0  0
    3.3069    2.2029   20.3031 C   0  0  0  0  0  0  0  0  0  0  0  0
    6.7820    0.5156   23.8535 H   0  0  0  0  0  0  0  0  0  0  0  0
    7.5189    3.4584   27.5710 H   0  0  0  0  0  0  0  0  0  0  0  0
    6.8371    3.4989   22.7470 H   0  0  0  0  0  0  0  0  0  0  0  0
    8.6556    5.0833   25.5071 H   0  0  0  0  0  0  0  0  0  0  0  0
    7.1811    5.2410   24.8231 H   0  0  0  0  0  0  0  0  0  0  0  0
    8.4935    5.0693   22.9359 H   0  0  0  0  0  0  0  0  0  0  0  0
    9.5224    4.0211   23.6497 H   0  0  0  0  0  0  0  0  0  0  0  0
    9.1878    1.0335   23.5392 H   0  0  0  0  0  0  0  0  0  0  0  0
   10.6184   -0.0194   21.9974 H   0  0  0  0  0  0  0  0  0  0  0  0
   10.0240    0.8856   20.7752 H   0  0  0  0  0  0  0  0  0  0  0  0
    8.9954   -1.5565   21.8173 H   0  0  0  0  0  0  0  0  0  0  0  0
    9.0699   -1.0769   20.2581 H   0  0  0  0  0  0  0  0  0  0  0  0
    8.3476   -0.6171   18.8655 H   0  0  0  0  0  0  0  0  0  0  0  0
    3.4973    1.9017   22.3520 H   0  0  0  0  0  0  0  0  0  0  0  0
    5.3368    1.3185   16.9578 H   0  0  0  0  0  0  0  0  0  0  0  0
    3.4896    2.2823   18.2332 H   0  0  0  0  0  0  0  0  0  0  0  0
    2.4441    2.7061   20.3512 H   0  0  0  0  0  0  0  0  0  0  0  0
  1  2  1  0  0  0  0
  2  3  2  0  0  0  0
  2  4  1  0  0  0  0
  3  5  1  0  0  0  0
  3  6  1  0  0  0  0
  4  7  2  0  0  0  0
  6  8  2  0  0  0  0
  7  9  1  0  0  0  0
  8 10  1  0  0  0  0
  9 11  1  0  0  0  0
  9 12  1  0  0  0  0
 11 13  2  0  0  0  0
 11 14  1  0  0  0  0
 14 15  1  0  0  0  0
 15 16  1  0  0  0  0
 16 17  1  0  0  0  0
 17 18  1  0  0  0  0
 18 19  1  0  0  0  0
 18 20  2  0  0  0  0
 19 21  2  0  0  0  0
 19 22  1  0  0  0  0
 20 23  1  0  0  0  0
 21 24  1  0  0  0  0
 22 25  1  0  0  0  0
 22 26  2  0  0  0  0
 24 27  2  0  0  0  0
  7  8  1  0  0  0  0
 10 12  1  0  0  0  0
 23 25  2  0  0  0  0
 26 27  1  0  0  0  0
  4 28  1  0  0  0  0
  6 29  1  0  0  0  0
  9 30  1  0  0  0  0
 10 31  1  0  0  0  0
 10 32  1  0  0  0  0
 12 33  1  0  0  0  0
 12 34  1  0  0  0  0
 14 35  1  0  0  0  0
 15 36  1  0  0  0  0
 15 37  1  0  0  0  0
 16 38  1  0  0  0  0
 16 39  1  0  0  0  0
 20 40  1  0  0  0  0
 24 41  1  0  0  0  0
 25 42  1  0  0  0  0
 26 43  1  0  0  0  0
 27 44  1  0  0  0  0
M  END
> <BIOSOLVEIT.HYDE_ESTIMATED_AFFINITY_LOWER_BOUNDARY [nM]>
302121.004981

> <BIOSOLVEIT.HYDE_ESTIMATED_AFFINITY_UPPER_BOUNDARY [nM]>
30017508.125600

> <BIOSOLVEIT.HYDE_LIGAND_EFFICIENCY range: ++, +, 0, -, -->
--

> <BIOSOLVEIT.HYDE_LIGAND_LIPOPHILIC_EFFICIENCY range: ++, +, 0, -, -->
--

> <BIOSOLVEIT.INTER_CLASH range: red, yellow, green>
green

> <BIOSOLVEIT.INTRA_CLASH range: red, yellow, green>
yellow

> <BIOSOLVEIT.LOGP>
4.1616

> <BIOSOLVEIT.MOLECULAR WEIGHT>
402.279

> <BIOSOLVEIT.MOLECULE_CHECKSUM>
LTE0LjM5MTI7MC41MzMwMDY=

> <BIOSOLVEIT.TORSION_QUALITY range: red, yellow, green, not rotatable>
green

> <BIOSOLVEIT.TPSA>
64.11

> <BIOSOLVEIT.SEESAR_FAVORITE>
favorite

> <smc_score>
0.688

> <QED_score>
0.651

> <distance>
0.595

> <SimilarityPheSA_1>
0.648

> <Smiles>
O=C(NCCOc1cncc2cccnc12)C1CCc2cc(Cl)c(Cl)cc21

> <Similarity_SkelSpheres>
0.757

> <Cluster No>
1.0

> <QueryID>
JAN-GHE-5a013bed-2

> <SimilarityPheSA>
0.6482

> <Postera series>
3-aminopyridine-like

> <PDB_code>
Mpro-x10466

> <Approach>
DGM_focussed_RL

> <ID>
20210618_2

> <SimilarityPheSA_2>
0.7

> <OPTIBRIUM.logD>
3.0302

> <OPTIBRIUM.BBB category>
-

> <OPTIBRIUM.logP>
3.0302

> <OPTIBRIUM.P-gp category>
yes

> <OPTIBRIUM.logS>
0.383775

> <OPTIBRIUM.HIA category>
+

> <OPTIBRIUM.PPB90 category>
high

> <OPTIBRIUM.2D6 affinity category>
high

> <OPTIBRIUM.hERG pIC50>
4.70647

> <OPTIBRIUM.2C9 pKi>
5.54883

> <OPTIBRIUM.BBB log([brain]:[blood])>
-0.532611

> <OPTIBRIUM.logS @ pH7.4>
0.383775

$$$$
Compound 654_1_3
haSeeSAR  07122111353D 1   1.00000     0.00000     0
SeeSAR 11.0.2 hazemaj
 43 46  0  0  0  0            999 V2000
    0.4297    5.2166   25.1626 Cl  0  0  0  0  0  0  0  0  0  0  0  0
    1.7012    5.3355   23.9234 C   0  0  0  0  0  0  0  0  0  0  0  0
    1.6968    4.4353   22.8626 C   0  0  0  0  0  0  0  0  0  0  0  0
    2.6613    6.3335   24.0599 C   0  0  0  0  0  0  0  0  0  0  0  0
    0.8936    3.4246   22.4835 O   0  0  0  0  0  0  0  0  0  0  0  0
    2.7228    4.5952   21.9585 C   0  0  0  0  0  0  0  0  0  0  0  0
    3.6703    6.4607   23.1122 C   0  0  0  0  0  0  0  0  0  0  0  0
    1.5885    2.5760   21.5931 C   0  0  0  0  0  0  0  0  0  0  0  0
    3.7054    5.5759   22.0415 C   0  0  0  0  0  0  0  0  0  0  0  0
    2.5501    3.5250   20.9029 C   0  0  2  0  0  0  0  0  0  0  0  0
    4.9061    7.7321   23.2538 Cl  0  0  0  0  0  0  0  0  0  0  0  0
    3.8629    2.8769   20.4939 C   0  0  0  0  0  0  0  0  0  0  0  0
    4.9232    3.2788   20.9731 O   0  0  0  0  0  0  0  0  0  0  0  0
    3.8660    1.8810   19.6230 N   0  0  0  0  0  0  0  0  0  0  0  0
    5.0746    1.2844   19.2467 C   0  0  0  0  0  0  0  0  0  0  0  0
    5.8517    0.6675   20.2177 C   0  0  0  0  0  0  0  0  0  0  0  0
    5.5197    1.2997   17.9293 C   0  0  0  0  0  0  0  0  0  0  0  0
    7.0396    0.0690   19.8848 C   0  0  0  0  0  0  0  0  0  0  0  0
    5.6597    0.5125   21.7124 C   0  0  0  0  0  0  0  0  0  0  0  0
    6.6874    0.7161   17.6201 N   0  0  0  0  0  0  0  0  0  0  0  0
    7.6285   -0.4620   21.0362 N   0  0  0  0  0  0  0  0  0  0  0  0
    7.4408    0.1119   18.5523 C   0  0  0  0  0  0  0  0  0  0  0  0
    6.5867   -0.6303   22.0454 C   0  0  0  0  0  0  0  0  0  0  0  0
    9.0556   -0.7658   21.2202 C   0  0  0  0  0  0  0  0  0  0  0  0
    9.7420    0.4127   21.8914 C   0  0  0  0  0  0  0  0  0  0  0  0
    9.4750    1.5976   21.1559 O   0  0  0  0  0  0  0  0  0  0  0  0
    2.6254    6.9589   24.8393 H   0  0  0  0  0  0  0  0  0  0  0  0
    0.9637    2.1554   20.9353 H   0  0  0  0  0  0  0  0  0  0  0  0
    2.0818    1.8611   22.0885 H   0  0  0  0  0  0  0  0  0  0  0  0
    4.4210    5.6428   21.3462 H   0  0  0  0  0  0  0  0  0  0  0  0
    2.1082    3.9197   20.0973 H   0  0  0  0  0  0  0  0  0  0  0  0
    3.0046    1.5545   19.2338 H   0  0  0  0  0  0  0  0  0  0  0  0
    4.9736    1.7423   17.2180 H   0  0  0  0  0  0  0  0  0  0  0  0
    4.7114    0.2842   21.9328 H   0  0  0  0  0  0  0  0  0  0  0  0
    5.9238    1.3453   22.1988 H   0  0  0  0  0  0  0  0  0  0  0  0
    8.3049   -0.3147   18.2852 H   0  0  0  0  0  0  0  0  0  0  0  0
    6.1267   -1.5133   21.9521 H   0  0  0  0  0  0  0  0  0  0  0  0
    6.9565   -0.5433   22.9704 H   0  0  0  0  0  0  0  0  0  0  0  0
    9.4780   -0.9345   20.3296 H   0  0  0  0  0  0  0  0  0  0  0  0
    9.1520   -1.5789   21.7943 H   0  0  0  0  0  0  0  0  0  0  0  0
   10.7287    0.2524   21.9185 H   0  0  0  0  0  0  0  0  0  0  0  0
    9.3949    0.5138   22.8238 H   0  0  0  0  0  0  0  0  0  0  0  0
    8.6786    2.0597   21.5460 H   0  0  0  0  0  0  0  0  0  0  0  0
  1  2  1  0  0  0  0
  2  3  2  0  0  0  0
  2  4  1  0  0  0  0
  3  5  1  0  0  0  0
  3  6  1  0  0  0  0
  4  7  2  0  0  0  0
  5  8  1  0  0  0  0
  6  9  2  0  0  0  0
  6 10  1  0  0  0  0
  7 11  1  0  0  0  0
 10 12  1  0  0  0  0
 12 13  2  0  0  0  0
 12 14  1  0  0  0  0
 14 15  1  0  0  0  0
 15 16  2  0  0  0  0
 15 17  1  0  0  0  0
 16 18  1  0  0  0  0
 16 19  1  0  0  0  0
 17 20  2  0  0  0  0
 18 21  1  0  0  0  0
 18 22  2  0  0  0  0
 19 23  1  0  0  0  0
 21 24  1  0  0  0  0
 24 25  1  0  0  0  0
 25 26  1  0  0  0  0
  7  9  1  0  0  0  0
  8 10  1  0  0  0  0
 20 22  1  0  0  0  0
 21 23  1  0  0  0  0
  4 27  1  0  0  0  0
  8 28  1  0  0  0  0
  8 29  1  0  0  0  0
  9 30  1  0  0  0  0
 10 31  1  0  0  0  0
 14 32  1  0  0  0  0
 17 33  1  0  0  0  0
 19 34  1  0  0  0  0
 19 35  1  0  0  0  0
 22 36  1  0  0  0  0
 23 37  1  0  0  0  0
 23 38  1  0  0  0  0
 24 39  1  0  0  0  0
 24 40  1  0  0  0  0
 25 41  1  0  0  0  0
 25 42  1  0  0  0  0
 26 43  1  0  0  0  0
M  END
> <BIOSOLVEIT.HYDE_ESTIMATED_AFFINITY_LOWER_BOUNDARY [nM]>
326678.533308

> <BIOSOLVEIT.HYDE_ESTIMATED_AFFINITY_UPPER_BOUNDARY [nM]>
32457443.760547

> <BIOSOLVEIT.HYDE_LIGAND_EFFICIENCY range: ++, +, 0, -, -->
--

> <BIOSOLVEIT.HYDE_LIGAND_LIPOPHILIC_EFFICIENCY range: ++, +, 0, -, -->
--

> <BIOSOLVEIT.INTER_CLASH range: red, yellow, green>
green

> <BIOSOLVEIT.INTRA_CLASH range: red, yellow, green>
yellow

> <BIOSOLVEIT.LOGP>
2.8579

> <BIOSOLVEIT.MOLECULAR WEIGHT>
394.256

> <BIOSOLVEIT.MOLECULE_CHECKSUM>
LTE0LjE5NzQ7MC41NDYwNTU=

> <BIOSOLVEIT.TORSION_QUALITY range: red, yellow, green, not rotatable>
green

> <BIOSOLVEIT.TPSA>
74.69

> <BIOSOLVEIT.SEESAR_FAVORITE>
favorite

> <smc_score>
1.0

> <QED_score>
0.834

> <distance>
0.529

> <SimilarityPheSA_1>
0.633

> <Smiles>
O=C(Nc1cncc2c1CCN2CCO)C1COc2c(Cl)cc(Cl)cc21

> <Similarity_SkelSpheres>
0.667

> <Cluster No>
362.0

> <QueryID>
JAN-GHE-5a013bed-2

> <SimilarityPheSA>
0.6332

> <Postera series>
3-aminopyridine-like

> <PDB_code>
Mpro-x10466

> <Approach>
DGM_focussed_RL

> <ID>
20210618_653

> <SimilarityPheSA_2>
0.83

> <OPTIBRIUM.logD>
2.4757

> <OPTIBRIUM.BBB category>
-

> <OPTIBRIUM.logP>
2.37755

> <OPTIBRIUM.P-gp category>
yes

> <OPTIBRIUM.logS>
2.72988

> <OPTIBRIUM.HIA category>
+

> <OPTIBRIUM.PPB90 category>
high

> <OPTIBRIUM.2D6 affinity category>
high

> <OPTIBRIUM.hERG pIC50>
4.66766

> <OPTIBRIUM.2C9 pKi>
5.65482

> <OPTIBRIUM.BBB log([brain]:[blood])>
-0.349616

> <OPTIBRIUM.logS @ pH7.4>
0.738522

$$$$
Compound 654_1_1
haSeeSAR  07122111353D 1   1.00000     0.00000     0
SeeSAR 11.0.2 hazemaj
 43 46  0  0  0  0            999 V2000
    0.2719    8.0130   20.2879 Cl  0  0  0  0  0  0  0  0  0  0  0  0
    0.9063    6.5032   19.5920 C   0  0  0  0  0  0  0  0  0  0  0  0
    1.4770    5.5571   20.4377 C   0  0  0  0  0  0  0  0  0  0  0  0
    0.8071    6.3205   18.2161 C   0  0  0  0  0  0  0  0  0  0  0  0
    1.6669    5.4690   21.7668 O   0  0  0  0  0  0  0  0  0  0  0  0
    1.9503    4.4259   19.8114 C   0  0  0  0  0  0  0  0  0  0  0  0
    1.2894    5.1540   17.6339 C   0  0  0  0  0  0  0  0  0  0  0  0
    2.6756    4.5184   22.0390 C   0  0  0  0  0  0  0  0  0  0  0  0
    1.8736    4.1876   18.4434 C   0  0  0  0  0  0  0  0  0  0  0  0
    2.5373    3.5396   20.8881 C   0  0  2  0  0  0  0  0  0  0  0  0
    1.1682    4.8872   15.8795 Cl  0  0  0  0  0  0  0  0  0  0  0  0
    3.8484    2.8913   20.4741 C   0  0  0  0  0  0  0  0  0  0  0  0
    4.9139    3.3200   20.9171 O   0  0  0  0  0  0  0  0  0  0  0  0
    3.8443    1.8662   19.6377 N   0  0  0  0  0  0  0  0  0  0  0  0
    5.0512    1.2693   19.2565 C   0  0  0  0  0  0  0  0  0  0  0  0
    5.8401    0.6667   20.2272 C   0  0  0  0  0  0  0  0  0  0  0  0
    5.4834    1.2706   17.9347 C   0  0  0  0  0  0  0  0  0  0  0  0
    7.0267    0.0684   19.8896 C   0  0  0  0  0  0  0  0  0  0  0  0
    5.6632    0.5289   21.7253 C   0  0  0  0  0  0  0  0  0  0  0  0
    6.6500    0.6874   17.6210 N   0  0  0  0  0  0  0  0  0  0  0  0
    7.6287   -0.4468   21.0414 N   0  0  0  0  0  0  0  0  0  0  0  0
    7.4147    0.0969   18.5529 C   0  0  0  0  0  0  0  0  0  0  0  0
    6.5975   -0.6067   22.0628 C   0  0  0  0  0  0  0  0  0  0  0  0
    9.0587   -0.7435   21.2150 C   0  0  0  0  0  0  0  0  0  0  0  0
    9.7426    0.4353   21.8881 C   0  0  0  0  0  0  0  0  0  0  0  0
    9.4713    1.6213   21.1557 O   0  0  0  0  0  0  0  0  0  0  0  0
    0.3890    7.0281   17.6465 H   0  0  0  0  0  0  0  0  0  0  0  0
    2.5168    4.0665   22.9169 H   0  0  0  0  0  0  0  0  0  0  0  0
    3.5803    4.9445   22.0424 H   0  0  0  0  0  0  0  0  0  0  0  0
    2.2310    3.3400   18.0511 H   0  0  0  0  0  0  0  0  0  0  0  0
    1.8768    2.8296   21.1322 H   0  0  0  0  0  0  0  0  0  0  0  0
    2.9787    1.5180   19.2778 H   0  0  0  0  0  0  0  0  0  0  0  0
    4.9288    1.7028   17.2237 H   0  0  0  0  0  0  0  0  0  0  0  0
    4.7178    0.2999   21.9578 H   0  0  0  0  0  0  0  0  0  0  0  0
    5.9291    1.3683   22.1992 H   0  0  0  0  0  0  0  0  0  0  0  0
    8.2777   -0.3298   18.2823 H   0  0  0  0  0  0  0  0  0  0  0  0
    6.1396   -1.4923   21.9844 H   0  0  0  0  0  0  0  0  0  0  0  0
    6.9760   -0.5074   22.9830 H   0  0  0  0  0  0  0  0  0  0  0  0
    9.4765   -0.9052   20.3210 H   0  0  0  0  0  0  0  0  0  0  0  0
    9.1632   -1.5590   21.7842 H   0  0  0  0  0  0  0  0  0  0  0  0
   10.7298    0.2778   21.9137 H   0  0  0  0  0  0  0  0  0  0  0  0
    9.3964    0.5332   22.8211 H   0  0  0  0  0  0  0  0  0  0  0  0
    8.6782    2.0838   21.5523 H   0  0  0  0  0  0  0  0  0  0  0  0
  1  2  1  0  0  0  0
  2  3  2  0  0  0  0
  2  4  1  0  0  0  0
  3  5  1  0  0  0  0
  3  6  1  0  0  0  0
  4  7  2  0  0  0  0
  5  8  1  0  0  0  0
  6  9  2  0  0  0  0
  6 10  1  0  0  0  0
  7 11  1  0  0  0  0
 10 12  1  0  0  0  0
 12 13  2  0  0  0  0
 12 14  1  0  0  0  0
 14 15  1  0  0  0  0
 15 16  2  0  0  0  0
 15 17  1  0  0  0  0
 16 18  1  0  0  0  0
 16 19  1  0  0  0  0
 17 20  2  0  0  0  0
 18 21  1  0  0  0  0
 18 22  2  0  0  0  0
 19 23  1  0  0  0  0
 21 24  1  0  0  0  0
 24 25  1  0  0  0  0
 25 26  1  0  0  0  0
  7  9  1  0  0  0  0
  8 10  1  0  0  0  0
 20 22  1  0  0  0  0
 21 23  1  0  0  0  0
  4 27  1  0  0  0  0
  8 28  1  0  0  0  0
  8 29  1  0  0  0  0
  9 30  1  0  0  0  0
 10 31  1  0  0  0  0
 14 32  1  0  0  0  0
 17 33  1  0  0  0  0
 19 34  1  0  0  0  0
 19 35  1  0  0  0  0
 22 36  1  0  0  0  0
 23 37  1  0  0  0  0
 23 38  1  0  0  0  0
 24 39  1  0  0  0  0
 24 40  1  0  0  0  0
 25 41  1  0  0  0  0
 25 42  1  0  0  0  0
 26 43  1  0  0  0  0
M  END
> <BIOSOLVEIT.HYDE_ESTIMATED_AFFINITY_LOWER_BOUNDARY [nM]>
334955.911509

> <BIOSOLVEIT.HYDE_ESTIMATED_AFFINITY_UPPER_BOUNDARY [nM]>
33279850.224465

> <BIOSOLVEIT.HYDE_LIGAND_EFFICIENCY range: ++, +, 0, -, -->
--

> <BIOSOLVEIT.HYDE_LIGAND_LIPOPHILIC_EFFICIENCY range: ++, +, 0, -, -->
--

> <BIOSOLVEIT.INTER_CLASH range: red, yellow, green>
green

> <BIOSOLVEIT.INTRA_CLASH range: red, yellow, green>
green

> <BIOSOLVEIT.LOGP>
2.8579

> <BIOSOLVEIT.MOLECULAR WEIGHT>
394.256

> <BIOSOLVEIT.MOLECULE_CHECKSUM>
LTE0LjEzNTQ7MC41NDM2Njk=

> <BIOSOLVEIT.TORSION_QUALITY range: red, yellow, green, not rotatable>
green

> <BIOSOLVEIT.TPSA>
74.69

> <BIOSOLVEIT.SEESAR_FAVORITE>
favorite

> <smc_score>
1.0

> <QED_score>
0.834

> <distance>
0.529

> <SimilarityPheSA_1>
0.633

> <Smiles>
O=C(Nc1cncc2c1CCN2CCO)C1COc2c(Cl)cc(Cl)cc21

> <Similarity_SkelSpheres>
0.667

> <Cluster No>
362.0

> <QueryID>
JAN-GHE-5a013bed-2

> <SimilarityPheSA>
0.6332

> <Postera series>
3-aminopyridine-like

> <PDB_code>
Mpro-x10466

> <Approach>
DGM_focussed_RL

> <ID>
20210618_653

> <SimilarityPheSA_2>
0.83

> <OPTIBRIUM.logD>
2.4757

> <OPTIBRIUM.BBB category>
-

> <OPTIBRIUM.logP>
2.37755

> <OPTIBRIUM.P-gp category>
yes

> <OPTIBRIUM.logS>
2.72988

> <OPTIBRIUM.HIA category>
+

> <OPTIBRIUM.PPB90 category>
high

> <OPTIBRIUM.2D6 affinity category>
high

> <OPTIBRIUM.hERG pIC50>
4.66766

> <OPTIBRIUM.2C9 pKi>
5.65482

> <OPTIBRIUM.BBB log([brain]:[blood])>
-0.349616

> <OPTIBRIUM.logS @ pH7.4>
0.738522

$$$$
Compound 440_1_09
haSeeSAR  07122111353D 1   1.00000     0.00000     0
SeeSAR 11.0.2 hazemaj
 42 44  0  0  0  0            999 V2000
    9.9348   -5.1195   25.7790 Cl  0  0  0  0  0  0  0  0  0  0  0  0
    9.0854   -3.6690   25.1932 C   0  0  0  0  0  0  0  0  0  0  0  0
    7.9315   -3.2398   25.8397 C   0  0  0  0  0  0  0  0  0  0  0  0
    9.5928   -2.9856   24.0939 C   0  0  0  0  0  0  0  0  0  0  0  0
    7.2827   -2.1040   25.3667 C   0  0  0  0  0  0  0  0  0  0  0  0
    8.9246   -1.8526   23.6411 C   0  0  0  0  0  0  0  0  0  0  0  0
    5.8046   -1.5450   26.1855 Cl  0  0  0  0  0  0  0  0  0  0  0  0
    7.7681   -1.4019   24.2690 C   0  0  0  0  0  0  0  0  0  0  0  0
    9.4615   -1.0904   22.4416 C   0  0  0  0  0  0  0  0  0  0  0  0
    8.3736   -0.8603   21.4801 N   0  0  0  0  0  0  0  0  0  0  0  0
    8.3364    0.2611   20.7791 C   0  0  0  0  0  0  0  0  0  0  0  0
    9.2129    1.1119   20.9321 O   0  0  0  0  0  0  0  0  0  0  0  0
    7.2619    0.4885   19.8295 C   0  0  0  0  0  0  0  0  0  0  0  0
    6.0316    1.0383   20.1915 C   0  0  0  0  0  0  0  0  0  0  0  0
    7.4867    0.1376   18.5023 C   0  0  0  0  0  0  0  0  0  0  0  0
    5.0508    1.2247   19.2208 C   0  0  0  0  0  0  0  0  0  0  0  0
    5.7368    1.4163   21.4997 C   0  0  0  0  0  0  0  0  0  0  0  0
    6.5258    0.3277   17.5859 N   0  0  0  0  0  0  0  0  0  0  0  0
    5.3351    0.8539   17.9107 C   0  0  0  0  0  0  0  0  0  0  0  0
    3.8108    1.7689   19.5400 C   0  0  0  0  0  0  0  0  0  0  0  0
    4.5060    1.9624   21.8487 C   0  0  0  0  0  0  0  0  0  0  0  0
    3.5482    2.1339   20.8563 C   0  0  0  0  0  0  0  0  0  0  0  0
    4.2715    2.3126   23.1307 O   0  0  0  0  0  0  0  0  0  0  0  0
    2.3584    2.6639   21.2083 O   0  0  0  0  0  0  0  0  0  0  0  0
    5.2652    2.0906   24.1205 C   0  0  0  0  0  0  0  0  0  0  0  0
    1.3490    2.8560   20.2282 C   0  0  0  0  0  0  0  0  0  0  0  0
    7.5748   -3.7384   26.6298 H   0  0  0  0  0  0  0  0  0  0  0  0
   10.4236   -3.3028   23.6366 H   0  0  0  0  0  0  0  0  0  0  0  0
    7.2938   -0.5867   23.9366 H   0  0  0  0  0  0  0  0  0  0  0  0
   10.1854   -1.6240   22.0043 H   0  0  0  0  0  0  0  0  0  0  0  0
    9.8312   -0.2115   22.7433 H   0  0  0  0  0  0  0  0  0  0  0  0
    7.6616   -1.5514   21.3559 H   0  0  0  0  0  0  0  0  0  0  0  0
    8.3649   -0.2563   18.2314 H   0  0  0  0  0  0  0  0  0  0  0  0
    6.4307    1.2915   22.2088 H   0  0  0  0  0  0  0  0  0  0  0  0
    4.6423    0.9812   17.2010 H   0  0  0  0  0  0  0  0  0  0  0  0
    3.1167    1.8963   18.8316 H   0  0  0  0  0  0  0  0  0  0  0  0
    4.9284    2.4061   25.0077 H   0  0  0  0  0  0  0  0  0  0  0  0
    5.4730    1.1138   24.1710 H   0  0  0  0  0  0  0  0  0  0  0  0
    6.0941    2.5957   23.8799 H   0  0  0  0  0  0  0  0  0  0  0  0
    0.5389    3.2551   20.6578 H   0  0  0  0  0  0  0  0  0  0  0  0
    1.6875    3.4729   19.5175 H   0  0  0  0  0  0  0  0  0  0  0  0
    1.1097    1.9756   19.8190 H   0  0  0  0  0  0  0  0  0  0  0  0
  1  2  1  0  0  0  0
  2  3  2  0  0  0  0
  2  4  1  0  0  0  0
  3  5  1  0  0  0  0
  4  6  2  0  0  0  0
  5  7  1  0  0  0  0
  5  8  2  0  0  0  0
  6  9  1  0  0  0  0
  9 10  1  0  0  0  0
 10 11  1  0  0  0  0
 11 12  2  0  0  0  0
 11 13  1  0  0  0  0
 13 14  1  0  0  0  0
 13 15  2  0  0  0  0
 14 16  1  0  0  0  0
 14 17  2  0  0  0  0
 15 18  1  0  0  0  0
 16 19  1  0  0  0  0
 16 20  2  0  0  0  0
 17 21  1  0  0  0  0
 20 22  1  0  0  0  0
 21 23  1  0  0  0  0
 22 24  1  0  0  0  0
 23 25  1  0  0  0  0
 24 26  1  0  0  0  0
  6  8  1  0  0  0  0
 18 19  2  0  0  0  0
 21 22  2  0  0  0  0
  3 27  1  0  0  0  0
  4 28  1  0  0  0  0
  8 29  1  0  0  0  0
  9 30  1  0  0  0  0
  9 31  1  0  0  0  0
 10 32  1  0  0  0  0
 15 33  1  0  0  0  0
 17 34  1  0  0  0  0
 19 35  1  0  0  0  0
 20 36  1  0  0  0  0
 25 37  1  0  0  0  0
 25 38  1  0  0  0  0
 25 39  1  0  0  0  0
 26 40  1  0  0  0  0
 26 41  1  0  0  0  0
 26 42  1  0  0  0  0
M  END
> <BIOSOLVEIT.HYDE_ESTIMATED_AFFINITY_LOWER_BOUNDARY [nM]>
387520.891757

> <BIOSOLVEIT.HYDE_ESTIMATED_AFFINITY_UPPER_BOUNDARY [nM]>
38502491.800939

> <BIOSOLVEIT.HYDE_LIGAND_EFFICIENCY range: ++, +, 0, -, -->
--

> <BIOSOLVEIT.HYDE_LIGAND_LIPOPHILIC_EFFICIENCY range: ++, +, 0, -, -->
--

> <BIOSOLVEIT.INTER_CLASH range: red, yellow, green>
green

> <BIOSOLVEIT.INTRA_CLASH range: red, yellow, green>
green

> <BIOSOLVEIT.LOGP>
4.4888

> <BIOSOLVEIT.MOLECULAR WEIGHT>
391.252

> <BIOSOLVEIT.MOLECULE_CHECKSUM>
LTEzLjc3NDswLjUyOTc3MQ==

> <BIOSOLVEIT.TORSION_QUALITY range: red, yellow, green, not rotatable>
green

> <BIOSOLVEIT.TPSA>
60.45

> <BIOSOLVEIT.SEESAR_FAVORITE>
favorite

> <smc_score>
0.688

> <QED_score>
0.696

> <distance>
0.542

> <SimilarityPheSA_1>
0.634

> <Smiles>
COc1cc2cncc(C(=O)NCc3cc(Cl)cc(Cl)c3)c2cc1OC

> <Similarity_SkelSpheres>
0.716

> <Cluster No>
228.0

> <QueryID>
MAT-POS-bb423b95-1

> <SimilarityPheSA>
0.6337

> <Postera series>
3-aminopyridine-like

> <PDB_code>
Mpro-x11542

> <Approach>
DGM_focussed_RL

> <ID>
20210618_439

> <SimilarityPheSA_2>
0.865

> <OPTIBRIUM.logD>
3.61053

> <OPTIBRIUM.BBB category>
-

> <OPTIBRIUM.logP>
3.61053

> <OPTIBRIUM.P-gp category>
no

> <OPTIBRIUM.logS>
0.571622

> <OPTIBRIUM.HIA category>
+

> <OPTIBRIUM.PPB90 category>
high

> <OPTIBRIUM.2D6 affinity category>
medium

> <OPTIBRIUM.hERG pIC50>
4.64747

> <OPTIBRIUM.2C9 pKi>
5.62145

> <OPTIBRIUM.BBB log([brain]:[blood])>
-0.214112

> <OPTIBRIUM.logS @ pH7.4>
0.571622

$$$$
Compound 512_1_04
haSeeSAR  07122111353D 1   1.00000     0.00000     0
SeeSAR 11.0.2 hazemaj
 44 47  0  0  0  0            999 V2000
    6.5383   -3.8500   21.7982 Cl  0  0  0  0  0  0  0  0  0  0  0  0
    7.6290   -3.8863   23.2042 C   0  0  0  0  0  0  0  0  0  0  0  0
    8.1891   -2.7030   23.6740 C   0  0  0  0  0  0  0  0  0  0  0  0
    7.9083   -5.1025   23.8176 C   0  0  0  0  0  0  0  0  0  0  0  0
    7.9046   -1.5327   23.0638 O   0  0  0  0  0  0  0  0  0  0  0  0
    9.0400   -2.7453   24.7741 C   0  0  0  0  0  0  0  0  0  0  0  0
    8.7615   -5.1169   24.9158 C   0  0  0  0  0  0  0  0  0  0  0  0
    8.8988   -0.8737   22.2933 C   0  0  0  0  0  0  0  0  0  0  0  0
    9.6022   -1.5529   25.2444 N   0  0  0  0  0  0  0  0  0  0  0  0
    9.3352   -3.9485   25.4057 C   0  0  0  0  0  0  0  0  0  0  0  0
    9.1340   -6.6616   25.7171 Cl  0  0  0  0  0  0  0  0  0  0  0  0
    8.2358   -0.1032   21.1631 C   0  0  0  0  0  0  0  0  0  0  0  0
   10.6489   -0.9550   24.7306 N   0  0  0  0  0  0  0  0  0  0  0  0
    9.1522   -0.8301   26.3027 C   0  0  0  0  0  0  0  0  0  0  0  0
    8.8131    0.8555   20.6503 O   0  0  0  0  0  0  0  0  0  0  0  0
    7.0384   -0.4630   20.7307 N   0  0  0  0  0  0  0  0  0  0  0  0
   10.9295    0.1438   25.3918 C   0  0  0  0  0  0  0  0  0  0  0  0
    9.9692    0.2527   26.4228 C   0  0  0  0  0  0  0  0  0  0  0  0
    7.9569   -1.1565   27.1842 C   0  0  0  0  0  0  0  0  0  0  0  0
    6.4275    0.2470   19.6894 C   0  0  0  0  0  0  0  0  0  0  0  0
    5.2659    0.9948   19.8697 C   0  0  0  0  0  0  0  0  0  0  0  0
    7.0102    0.1984   18.4271 C   0  0  0  0  0  0  0  0  0  0  0  0
    4.7104    1.6767   18.7933 C   0  0  0  0  0  0  0  0  0  0  0  0
    4.6235    1.0925   21.1006 C   0  0  0  0  0  0  0  0  0  0  0  0
    6.4585    0.8636   17.4011 N   0  0  0  0  0  0  0  0  0  0  0  0
    5.3406    1.5881   17.5562 C   0  0  0  0  0  0  0  0  0  0  0  0
    3.5506    2.4208   18.9844 C   0  0  0  0  0  0  0  0  0  0  0  0
    3.4643    1.8463   21.2537 C   0  0  0  0  0  0  0  0  0  0  0  0
    2.9625    2.4891   20.1882 N   0  0  0  0  0  0  0  0  0  0  0  0
    7.5034   -5.9505   23.4757 H   0  0  0  0  0  0  0  0  0  0  0  0
    9.5276   -1.5510   21.9110 H   0  0  0  0  0  0  0  0  0  0  0  0
    9.4064   -0.2394   22.8763 H   0  0  0  0  0  0  0  0  0  0  0  0
    9.9473   -3.9732   26.1961 H   0  0  0  0  0  0  0  0  0  0  0  0
    6.5694   -1.2418   21.1472 H   0  0  0  0  0  0  0  0  0  0  0  0
   11.6773    0.7802   25.2026 H   0  0  0  0  0  0  0  0  0  0  0  0
    9.9030    0.9805   27.1054 H   0  0  0  0  0  0  0  0  0  0  0  0
    7.8579   -0.4511   27.8862 H   0  0  0  0  0  0  0  0  0  0  0  0
    7.1288   -1.1882   26.6246 H   0  0  0  0  0  0  0  0  0  0  0  0
    8.0979   -2.0445   27.6216 H   0  0  0  0  0  0  0  0  0  0  0  0
    7.8440   -0.3348   18.2839 H   0  0  0  0  0  0  0  0  0  0  0  0
    5.0029    0.6111   21.8908 H   0  0  0  0  0  0  0  0  0  0  0  0
    4.9542    2.0718   16.7708 H   0  0  0  0  0  0  0  0  0  0  0  0
    3.1487    2.9127   18.2120 H   0  0  0  0  0  0  0  0  0  0  0  0
    3.0122    1.9080   22.1437 H   0  0  0  0  0  0  0  0  0  0  0  0
  1  2  1  0  0  0  0
  2  3  2  0  0  0  0
  2  4  1  0  0  0  0
  3  5  1  0  0  0  0
  3  6  1  0  0  0  0
  4  7  2  0  0  0  0
  5  8  1  0  0  0  0
  6  9  1  0  0  0  0
  6 10  2  0  0  0  0
  7 11  1  0  0  0  0
  8 12  1  0  0  0  0
  9 13  1  0  0  0  0
  9 14  1  0  0  0  0
 12 15  2  0  0  0  0
 12 16  1  0  0  0  0
 13 17  2  0  0  0  0
 14 18  2  0  0  0  0
 14 19  1  0  0  0  0
 16 20  1  0  0  0  0
 20 21  1  0  0  0  0
 20 22  2  0  0  0  0
 21 23  1  0  0  0  0
 21 24  2  0  0  0  0
 22 25  1  0  0  0  0
 23 26  1  0  0  0  0
 23 27  2  0  0  0  0
 24 28  1  0  0  0  0
 27 29  1  0  0  0  0
  7 10  1  0  0  0  0
 17 18  1  0  0  0  0
 25 26  2  0  0  0  0
 28 29  2  0  0  0  0
  4 30  1  0  0  0  0
  8 31  1  0  0  0  0
  8 32  1  0  0  0  0
 10 33  1  0  0  0  0
 16 34  1  0  0  0  0
 17 35  1  0  0  0  0
 18 36  1  0  0  0  0
 19 37  1  0  0  0  0
 19 38  1  0  0  0  0
 19 39  1  0  0  0  0
 22 40  1  0  0  0  0
 24 41  1  0  0  0  0
 26 42  1  0  0  0  0
 27 43  1  0  0  0  0
 28 44  1  0  0  0  0
M  END
> <BIOSOLVEIT.HYDE_ESTIMATED_AFFINITY_LOWER_BOUNDARY [nM]>
424335.622492

> <BIOSOLVEIT.HYDE_ESTIMATED_AFFINITY_UPPER_BOUNDARY [nM]>
42160252.965297

> <BIOSOLVEIT.HYDE_LIGAND_EFFICIENCY range: ++, +, 0, -, -->
--

> <BIOSOLVEIT.HYDE_LIGAND_LIPOPHILIC_EFFICIENCY range: ++, +, 0, -, -->
--

> <BIOSOLVEIT.INTER_CLASH range: red, yellow, green>
green

> <BIOSOLVEIT.INTRA_CLASH range: red, yellow, green>
green

> <BIOSOLVEIT.LOGP>
4.44822

> <BIOSOLVEIT.MOLECULAR WEIGHT>
428.278

> <BIOSOLVEIT.MOLECULE_CHECKSUM>
LTEzLjU0OTE7MC40NjcyMDk=

> <BIOSOLVEIT.TORSION_QUALITY range: red, yellow, green, not rotatable>
green

> <BIOSOLVEIT.TPSA>
81.93

> <BIOSOLVEIT.SEESAR_FAVORITE>
favorite

> <smc_score>
0.563

> <QED_score>
0.508

> <distance>
0.508

> <SimilarityPheSA_1>
0.639

> <Smiles>
Cc1ccnn1-c1cc(Cl)cc(Cl)c1OCC(=O)Nc1cncc2cnccc12

> <Similarity_SkelSpheres>
0.764

> <Cluster No>
273.0

> <QueryID>
MAT-POS-8a69d52e-7

> <SimilarityPheSA>
0.6385

> <Postera series>
3-aminopyridine-like

> <PDB_code>
Mpro-x12073

> <Approach>
DGM_focussed_RL

> <ID>
20210618_511

> <SimilarityPheSA_2>
0.785

> <OPTIBRIUM.logD>
3.5416

> <OPTIBRIUM.BBB category>
-

> <OPTIBRIUM.logP>
3.5416

> <OPTIBRIUM.P-gp category>
no

> <OPTIBRIUM.logS>
-0.166

> <OPTIBRIUM.HIA category>
+

> <OPTIBRIUM.PPB90 category>
high

> <OPTIBRIUM.2D6 affinity category>
medium

> <OPTIBRIUM.hERG pIC50>
4.74146

> <OPTIBRIUM.2C9 pKi>
6.00048

> <OPTIBRIUM.BBB log([brain]:[blood])>
-0.533243

> <OPTIBRIUM.logS @ pH7.4>
-0.166

$$$$
Compound 492_1_1
haSeeSAR  07122111353D 1   1.00000     0.00000     0
SeeSAR 11.0.2 hazemaj
 51 54  0  0  0  0            999 V2000
    5.1439   -1.4821   27.0860 Cl  0  0  0  0  0  0  0  0  0  0  0  0
    5.9429   -2.5277   25.8873 C   0  0  0  0  0  0  0  0  0  0  0  0
    5.8259   -3.9108   25.9858 C   0  0  0  0  0  0  0  0  0  0  0  0
    6.6823   -1.9566   24.8565 C   0  0  0  0  0  0  0  0  0  0  0  0
    4.8770   -4.6251   27.3116 Cl  0  0  0  0  0  0  0  0  0  0  0  0
    6.4475   -4.7368   25.0549 C   0  0  0  0  0  0  0  0  0  0  0  0
    7.3015   -2.7858   23.9266 C   0  0  0  0  0  0  0  0  0  0  0  0
    7.1879   -4.1694   24.0224 C   0  0  0  0  0  0  0  0  0  0  0  0
    8.0662   -2.1670   22.8607 C   0  0  0  0  0  0  0  0  0  0  0  0
    7.8585   -5.0916   23.0167 C   0  0  0  0  0  0  0  0  0  0  0  0
    7.7788   -2.3937   21.6854 O   0  0  0  0  0  0  0  0  0  0  0  0
    9.1322   -1.3109   23.1689 N   0  0  0  0  0  0  0  0  0  0  0  0
    9.1928    0.1252   22.8764 C   0  0  2  0  0  0  0  0  0  0  0  0
   10.3757   -1.7117   23.8304 C   0  0  0  0  0  0  0  0  0  0  0  0
    8.5221    0.4680   21.5558 C   0  0  0  0  0  0  0  0  0  0  0  0
   10.6648    0.4936   22.8980 C   0  0  0  0  0  0  0  0  0  0  0  0
    8.5204    0.9084   23.9929 C   0  0  0  0  0  0  0  0  0  0  0  0
   11.4134   -0.7830   23.2344 C   0  0  0  0  0  0  0  0  0  0  0  0
    9.1708    1.0025   20.6565 O   0  0  0  0  0  0  0  0  0  0  0  0
    7.2412    0.1921   21.3732 N   0  0  0  0  0  0  0  0  0  0  0  0
    6.6229    0.5082   20.1561 C   0  0  0  0  0  0  0  0  0  0  0  0
    5.4509    1.2582   20.0814 C   0  0  0  0  0  0  0  0  0  0  0  0
    7.2087    0.0522   18.9799 C   0  0  0  0  0  0  0  0  0  0  0  0
    4.9003    1.5283   18.8324 C   0  0  0  0  0  0  0  0  0  0  0  0
    4.8104    1.7469   21.2169 C   0  0  0  0  0  0  0  0  0  0  0  0
    6.6545    0.3278   17.7894 N   0  0  0  0  0  0  0  0  0  0  0  0
    5.5266    1.0475   17.6862 C   0  0  0  0  0  0  0  0  0  0  0  0
    3.7304    2.2747   18.7283 C   0  0  0  0  0  0  0  0  0  0  0  0
    3.6406    2.4940   21.1335 C   0  0  0  0  0  0  0  0  0  0  0  0
    3.1072    2.7533   19.8757 C   0  0  0  0  0  0  0  0  0  0  0  0
    6.7676   -0.9628   24.7849 H   0  0  0  0  0  0  0  0  0  0  0  0
    6.3629   -5.7305   25.1271 H   0  0  0  0  0  0  0  0  0  0  0  0
    8.3504   -4.5447   22.3392 H   0  0  0  0  0  0  0  0  0  0  0  0
    8.5023   -5.6913   23.4919 H   0  0  0  0  0  0  0  0  0  0  0  0
    7.1639   -5.6454   22.5574 H   0  0  0  0  0  0  0  0  0  0  0  0
   10.5947   -2.6666   23.6304 H   0  0  0  0  0  0  0  0  0  0  0  0
   10.3101   -1.5849   24.8202 H   0  0  0  0  0  0  0  0  0  0  0  0
   10.8378    1.1909   23.5937 H   0  0  0  0  0  0  0  0  0  0  0  0
   10.9497    0.8375   22.0033 H   0  0  0  0  0  0  0  0  0  0  0  0
    8.5650    1.8861   23.7880 H   0  0  0  0  0  0  0  0  0  0  0  0
    7.5638    0.6269   24.0683 H   0  0  0  0  0  0  0  0  0  0  0  0
    8.9902    0.7273   24.8569 H   0  0  0  0  0  0  0  0  0  0  0  0
   11.8093   -1.1844   22.4085 H   0  0  0  0  0  0  0  0  0  0  0  0
   12.1397   -0.5986   23.8965 H   0  0  0  0  0  0  0  0  0  0  0  0
    6.7142   -0.2421   22.1038 H   0  0  0  0  0  0  0  0  0  0  0  0
    8.0504   -0.4861   19.0218 H   0  0  0  0  0  0  0  0  0  0  0  0
    5.2020    1.5552   22.1167 H   0  0  0  0  0  0  0  0  0  0  0  0
    5.1361    1.2385   16.7856 H   0  0  0  0  0  0  0  0  0  0  0  0
    3.3380    2.4670   17.8288 H   0  0  0  0  0  0  0  0  0  0  0  0
    3.1931    2.8371   21.9594 H   0  0  0  0  0  0  0  0  0  0  0  0
    2.2669    3.2894   19.7955 H   0  0  0  0  0  0  0  0  0  0  0  0
  1  2  1  0  0  0  0
  2  3  2  0  0  0  0
  2  4  1  0  0  0  0
  3  5  1  0  0  0  0
  3  6  1  0  0  0  0
  4  7  2  0  0  0  0
  6  8  2  0  0  0  0
  7  9  1  0  0  0  0
  8 10  1  0  0  0  0
  9 11  2  0  0  0  0
  9 12  1  0  0  0  0
 12 13  1  0  0  0  0
 12 14  1  0  0  0  0
 13 15  1  0  0  0  0
 13 16  1  0  0  0  0
 13 17  1  0  0  0  0
 14 18  1  0  0  0  0
 15 19  2  0  0  0  0
 15 20  1  0  0  0  0
 20 21  1  0  0  0  0
 21 22  1  0  0  0  0
 21 23  2  0  0  0  0
 22 24  1  0  0  0  0
 22 25  2  0  0  0  0
 23 26  1  0  0  0  0
 24 27  1  0  0  0  0
 24 28  2  0  0  0  0
 25 29  1  0  0  0  0
 28 30  1  0  0  0  0
  7  8  1  0  0  0  0
 16 18  1  0  0  0  0
 26 27  2  0  0  0  0
 29 30  2  0  0  0  0
  4 31  1  0  0  0  0
  6 32  1  0  0  0  0
 10 33  1  0  0  0  0
 10 34  1  0  0  0  0
 10 35  1  0  0  0  0
 14 36  1  0  0  0  0
 14 37  1  0  0  0  0
 16 38  1  0  0  0  0
 16 39  1  0  0  0  0
 17 40  1  0  0  0  0
 17 41  1  0  0  0  0
 17 42  1  0  0  0  0
 18 43  1  0  0  0  0
 18 44  1  0  0  0  0
 20 45  1  0  0  0  0
 23 46  1  0  0  0  0
 25 47  1  0  0  0  0
 27 48  1  0  0  0  0
 28 49  1  0  0  0  0
 29 50  1  0  0  0  0
 30 51  1  0  0  0  0
M  END
> <BIOSOLVEIT.HYDE_ESTIMATED_AFFINITY_LOWER_BOUNDARY [nM]>
424542.986123

> <BIOSOLVEIT.HYDE_ESTIMATED_AFFINITY_UPPER_BOUNDARY [nM]>
42180855.768086

> <BIOSOLVEIT.HYDE_LIGAND_EFFICIENCY range: ++, +, 0, -, -->
--

> <BIOSOLVEIT.HYDE_LIGAND_LIPOPHILIC_EFFICIENCY range: ++, +, 0, -, -->
--

> <BIOSOLVEIT.INTER_CLASH range: red, yellow, green>
green

> <BIOSOLVEIT.INTRA_CLASH range: red, yellow, green>
yellow

> <BIOSOLVEIT.LOGP>
5.48342

> <BIOSOLVEIT.MOLECULAR WEIGHT>
442.344

> <BIOSOLVEIT.MOLECULE_CHECKSUM>
LTEzLjU0Nzk7MC40NTE1OTU=

> <BIOSOLVEIT.TORSION_QUALITY range: red, yellow, green, not rotatable>
yellow

> <BIOSOLVEIT.TPSA>
62.3

> <BIOSOLVEIT.SEESAR_FAVORITE>
favorite

> <smc_score>
0.875

> <QED_score>
0.584

> <distance>
0.508

> <SimilarityPheSA_1>
0.658

> <Smiles>
Cc1cc(Cl)c(Cl)cc1C(=O)N1CCCC1(C)C(=O)Nc1cncc2ccccc12

> <Similarity_SkelSpheres>
0.817

> <Cluster No>
260.0

> <QueryID>
JAN-GHE-5a013bed-2

> <SimilarityPheSA>
0.6584

> <Postera series>
3-aminopyridine-like

> <PDB_code>
Mpro-x10466

> <Approach>
DGM_focussed_RL

> <ID>
20210618_491

> <SimilarityPheSA_2>
0.77

> <OPTIBRIUM.logD>
4.3692

> <OPTIBRIUM.BBB category>
-

> <OPTIBRIUM.logP>
4.3692

> <OPTIBRIUM.P-gp category>
no

> <OPTIBRIUM.logS>
0.140491

> <OPTIBRIUM.HIA category>
+

> <OPTIBRIUM.PPB90 category>
high

> <OPTIBRIUM.2D6 affinity category>
high

> <OPTIBRIUM.hERG pIC50>
5.2128

> <OPTIBRIUM.2C9 pKi>
6.05427

> <OPTIBRIUM.BBB log([brain]:[blood])>
-0.371973

> <OPTIBRIUM.logS @ pH7.4>
0.140491

$$$$
Compound 567_1_3
haSeeSAR  07122111353D 1   1.00000     0.00000     0
SeeSAR 11.0.2 hazemaj
 34 36  0  0  0  0            999 V2000
    7.5132    2.7703   24.7716 Cl  0  0  0  0  0  0  0  0  0  0  0  0
    8.0825    1.4170   25.7784 C   0  0  0  0  0  0  0  0  0  0  0  0
    8.9491    0.4676   25.2455 C   0  0  0  0  0  0  0  0  0  0  0  0
    7.6516    1.3193   27.0968 C   0  0  0  0  0  0  0  0  0  0  0  0
    9.3925   -0.5893   26.0341 C   0  0  0  0  0  0  0  0  0  0  0  0
    9.4112    0.5853   23.8035 C   0  0  0  0  0  0  0  0  0  0  0  0
    8.1014    0.2575   27.8747 C   0  0  0  0  0  0  0  0  0  0  0  0
    8.9689   -0.6978   27.3547 C   0  0  0  0  0  0  0  0  0  0  0  0
    8.2865    0.2982   22.9041 N   0  0  0  0  0  0  0  0  0  0  0  0
    7.6401    0.1396   29.3182 C   0  0  0  0  0  0  0  0  0  0  0  0
    8.0965    0.8420   21.6358 C   0  0  0  0  0  0  0  0  0  0  0  0
    7.1648   -0.5905   23.2429 C   0  0  0  0  0  0  0  0  0  0  0  0
    7.2941    0.0512   30.4007 N   0  0  0  0  0  0  0  0  0  0  0  0
    8.8210    1.6821   21.1105 O   0  0  0  0  0  0  0  0  0  0  0  0
    6.9623    0.2829   21.0577 N   0  0  0  0  0  0  0  0  0  0  0  0
    6.4102   -0.7514   21.9348 C   0  0  0  0  0  0  0  0  0  0  0  0
    6.4370    0.6348   19.8095 C   0  0  0  0  0  0  0  0  0  0  0  0
    5.2707    1.3884   19.7236 C   0  0  0  0  0  0  0  0  0  0  0  0
    7.0613    0.2426   18.6304 C   0  0  0  0  0  0  0  0  0  0  0  0
    4.7859    1.7133   18.5158 N   0  0  0  0  0  0  0  0  0  0  0  0
    6.5259    0.5998   17.4536 N   0  0  0  0  0  0  0  0  0  0  0  0
    5.4009    1.3273   17.3884 C   0  0  0  0  0  0  0  0  0  0  0  0
    7.0285    2.0013   27.4795 H   0  0  0  0  0  0  0  0  0  0  0  0
   10.0161   -1.2712   25.6515 H   0  0  0  0  0  0  0  0  0  0  0  0
   10.1482   -0.0693   23.6351 H   0  0  0  0  0  0  0  0  0  0  0  0
    9.7444    1.5129   23.6349 H   0  0  0  0  0  0  0  0  0  0  0  0
    9.2850   -1.4558   27.9252 H   0  0  0  0  0  0  0  0  0  0  0  0
    6.5811   -0.1749   23.9405 H   0  0  0  0  0  0  0  0  0  0  0  0
    7.4987   -1.4742   23.5710 H   0  0  0  0  0  0  0  0  0  0  0  0
    5.4300   -0.6099   22.0734 H   0  0  0  0  0  0  0  0  0  0  0  0
    6.5643   -1.6606   21.5483 H   0  0  0  0  0  0  0  0  0  0  0  0
    4.7987    1.6851   20.5538 H   0  0  0  0  0  0  0  0  0  0  0  0
    7.9009   -0.3000   18.6597 H   0  0  0  0  0  0  0  0  0  0  0  0
    5.0208    1.5818   16.4991 H   0  0  0  0  0  0  0  0  0  0  0  0
  1  2  1  0  0  0  0
  2  3  2  0  0  0  0
  2  4  1  0  0  0  0
  3  5  1  0  0  0  0
  3  6  1  0  0  0  0
  4  7  2  0  0  0  0
  5  8  2  0  0  0  0
  6  9  1  0  0  0  0
  7 10  1  0  0  0  0
  9 11  1  0  0  0  0
  9 12  1  0  0  0  0
 10 13  3  0  0  0  0
 11 14  2  0  0  0  0
 11 15  1  0  0  0  0
 12 16  1  0  0  0  0
 15 17  1  0  0  0  0
 17 18  2  0  0  0  0
 17 19  1  0  0  0  0
 18 20  1  0  0  0  0
 19 21  2  0  0  0  0
 20 22  2  0  0  0  0
  7  8  1  0  0  0  0
 15 16  1  0  0  0  0
 21 22  1  0  0  0  0
  4 23  1  0  0  0  0
  5 24  1  0  0  0  0
  6 25  1  0  0  0  0
  6 26  1  0  0  0  0
  8 27  1  0  0  0  0
 12 28  1  0  0  0  0
 12 29  1  0  0  0  0
 16 30  1  0  0  0  0
 16 31  1  0  0  0  0
 18 32  1  0  0  0  0
 19 33  1  0  0  0  0
 22 34  1  0  0  0  0
M  END
> <BIOSOLVEIT.HYDE_ESTIMATED_AFFINITY_LOWER_BOUNDARY [nM]>
431040.712777

> <BIOSOLVEIT.HYDE_ESTIMATED_AFFINITY_UPPER_BOUNDARY [nM]>
42826443.328748

> <BIOSOLVEIT.HYDE_LIGAND_EFFICIENCY range: ++, +, 0, -, -->
--

> <BIOSOLVEIT.HYDE_LIGAND_LIPOPHILIC_EFFICIENCY range: ++, +, 0, -, -->
--

> <BIOSOLVEIT.INTER_CLASH range: red, yellow, green>
green

> <BIOSOLVEIT.INTRA_CLASH range: red, yellow, green>
green

> <BIOSOLVEIT.LOGP>
2.44388

> <BIOSOLVEIT.MOLECULAR WEIGHT>
313.747

> <BIOSOLVEIT.MOLECULE_CHECKSUM>
LTEzLjUxMDI7MC42MTQx

> <BIOSOLVEIT.TORSION_QUALITY range: red, yellow, green, not rotatable>
yellow

> <BIOSOLVEIT.TPSA>
73.12

> <BIOSOLVEIT.SEESAR_FAVORITE>
favorite

> <smc_score>
0.625

> <QED_score>
0.872

> <distance>
0.699

> <SimilarityPheSA_1>
0.639

> <Smiles>
N#Cc1ccc(CN2CCN(c3cncnc3)C2=O)c(Cl)c1

> <Similarity_SkelSpheres>
0.681

> <Cluster No>
303.0

> <QueryID>
PET-UNK-c9c1e0d8-3

> <SimilarityPheSA>
0.6391

> <Postera series>
3-aminopyridine-like

> <PDB_code>
Mpro-x12587

> <Approach>
DGM_focussed_RL

> <ID>
20210618_566

> <SimilarityPheSA_2>
0.718

> <OPTIBRIUM.logD>
2.91064

> <OPTIBRIUM.BBB category>
-

> <OPTIBRIUM.logP>
2.91064

> <OPTIBRIUM.P-gp category>
no

> <OPTIBRIUM.logS>
1.09339

> <OPTIBRIUM.HIA category>
+

> <OPTIBRIUM.PPB90 category>
high

> <OPTIBRIUM.2D6 affinity category>
medium

> <OPTIBRIUM.hERG pIC50>
5.09613

> <OPTIBRIUM.2C9 pKi>
5.06312

> <OPTIBRIUM.BBB log([brain]:[blood])>
-0.134624

> <OPTIBRIUM.logS @ pH7.4>
1.09339

$$$$
Compound 714_1_07
haSeeSAR  07122111353D 1   1.00000     0.00000     0
SeeSAR 11.0.2 hazemaj
 39 42  0  0  0  0            999 V2000
   12.2325    0.3657   24.7214 Cl  0  0  0  0  0  0  0  0  0  0  0  0
   10.5745    0.0472   25.2862 C   0  0  0  0  0  0  0  0  0  0  0  0
    9.6253   -0.4600   24.4051 C   0  0  0  0  0  0  0  0  0  0  0  0
   10.2410    0.3102   26.6110 C   0  0  0  0  0  0  0  0  0  0  0  0
    8.3296   -0.7094   24.8457 C   0  0  0  0  0  0  0  0  0  0  0  0
    9.9879   -0.7477   22.9572 C   0  0  0  0  0  0  0  0  0  0  0  0
    8.9451    0.0612   27.0515 C   0  0  0  0  0  0  0  0  0  0  0  0
    7.9967   -0.4461   26.1704 C   0  0  0  0  0  0  0  0  0  0  0  0
    8.7602   -0.8282   22.1510 N   0  0  0  0  0  0  0  0  0  0  0  0
    6.3402   -0.7634   26.7397 Cl  0  0  0  0  0  0  0  0  0  0  0  0
    8.3384    0.1029   21.2061 C   0  0  0  0  0  0  0  0  0  0  0  0
    7.7808   -1.9072   22.2765 C   0  0  0  0  0  0  0  0  0  0  0  0
    8.9300    1.1351   20.9483 O   0  0  0  0  0  0  0  0  0  0  0  0
    7.1526   -0.3421   20.6111 N   0  0  0  0  0  0  0  0  0  0  0  0
    6.8082   -1.6698   21.1348 C   0  0  0  0  0  0  0  0  0  0  0  0
    6.4119    0.3653   19.6540 C   0  0  0  0  0  0  0  0  0  0  0  0
    5.2747    1.1014   19.9752 C   0  0  0  0  0  0  0  0  0  0  0  0
    6.8364    0.3256   18.3303 C   0  0  0  0  0  0  0  0  0  0  0  0
    4.6044    1.7715   18.9553 C   0  0  0  0  0  0  0  0  0  0  0  0
    4.7913    1.1872   21.2797 C   0  0  0  0  0  0  0  0  0  0  0  0
    6.1366    0.9982   17.4035 N   0  0  0  0  0  0  0  0  0  0  0  0
    5.0812    1.6825   17.7012 N   0  0  0  0  0  0  0  0  0  0  0  0
    3.4653    2.5121   19.2646 C   0  0  0  0  0  0  0  0  0  0  0  0
    3.6554    1.9251   21.5934 C   0  0  0  0  0  0  0  0  0  0  0  0
    2.7951    3.1679   18.3205 F   0  0  0  0  0  0  0  0  0  0  0  0
    2.9911    2.5918   20.5695 C   0  0  0  0  0  0  0  0  0  0  0  0
   10.9266    0.6751   27.2409 H   0  0  0  0  0  0  0  0  0  0  0  0
    7.6439   -1.0745   24.2162 H   0  0  0  0  0  0  0  0  0  0  0  0
   10.4797   -1.6167   22.9031 H   0  0  0  0  0  0  0  0  0  0  0  0
   10.5691   -0.0132   22.6069 H   0  0  0  0  0  0  0  0  0  0  0  0
    8.6956    0.2469   28.0019 H   0  0  0  0  0  0  0  0  0  0  0  0
    7.3107   -1.8575   23.1578 H   0  0  0  0  0  0  0  0  0  0  0  0
    8.2233   -2.7992   22.1847 H   0  0  0  0  0  0  0  0  0  0  0  0
    5.8654   -1.6825   21.4680 H   0  0  0  0  0  0  0  0  0  0  0  0
    6.9208   -2.3669   20.4267 H   0  0  0  0  0  0  0  0  0  0  0  0
    7.6501   -0.1957   18.0731 H   0  0  0  0  0  0  0  0  0  0  0  0
    5.2748    0.7048   22.0102 H   0  0  0  0  0  0  0  0  0  0  0  0
    3.3231    1.9754   22.5352 H   0  0  0  0  0  0  0  0  0  0  0  0
    2.1719    3.1287   20.7716 H   0  0  0  0  0  0  0  0  0  0  0  0
  1  2  1  0  0  0  0
  2  3  2  0  0  0  0
  2  4  1  0  0  0  0
  3  5  1  0  0  0  0
  3  6  1  0  0  0  0
  4  7  2  0  0  0  0
  5  8  2  0  0  0  0
  6  9  1  0  0  0  0
  8 10  1  0  0  0  0
  9 11  1  0  0  0  0
  9 12  1  0  0  0  0
 11 13  2  0  0  0  0
 11 14  1  0  0  0  0
 12 15  1  0  0  0  0
 14 16  1  0  0  0  0
 16 17  1  0  0  0  0
 16 18  2  0  0  0  0
 17 19  1  0  0  0  0
 17 20  2  0  0  0  0
 18 21  1  0  0  0  0
 19 22  1  0  0  0  0
 19 23  2  0  0  0  0
 20 24  1  0  0  0  0
 23 25  1  0  0  0  0
 23 26  1  0  0  0  0
  7  8  1  0  0  0  0
 14 15  1  0  0  0  0
 21 22  2  0  0  0  0
 24 26  2  0  0  0  0
  4 27  1  0  0  0  0
  5 28  1  0  0  0  0
  6 29  1  0  0  0  0
  6 30  1  0  0  0  0
  7 31  1  0  0  0  0
 12 32  1  0  0  0  0
 12 33  1  0  0  0  0
 15 34  1  0  0  0  0
 15 35  1  0  0  0  0
 18 36  1  0  0  0  0
 20 37  1  0  0  0  0
 24 38  1  0  0  0  0
 26 39  1  0  0  0  0
M  END
> <BIOSOLVEIT.HYDE_ESTIMATED_AFFINITY_LOWER_BOUNDARY [nM]>
453982.673528

> <BIOSOLVEIT.HYDE_ESTIMATED_AFFINITY_UPPER_BOUNDARY [nM]>
45105862.772976

> <BIOSOLVEIT.HYDE_LIGAND_EFFICIENCY range: ++, +, 0, -, -->
--

> <BIOSOLVEIT.HYDE_LIGAND_LIPOPHILIC_EFFICIENCY range: ++, +, 0, -, -->
--

> <BIOSOLVEIT.INTER_CLASH range: red, yellow, green>
green

> <BIOSOLVEIT.INTRA_CLASH range: red, yellow, green>
red

> <BIOSOLVEIT.LOGP>
4.5179

> <BIOSOLVEIT.MOLECULAR WEIGHT>
391.232

> <BIOSOLVEIT.MOLECULE_CHECKSUM>
LTEzLjM4MTc7MC41MTQ2Nzk=

> <BIOSOLVEIT.TORSION_QUALITY range: red, yellow, green, not rotatable>
green

> <BIOSOLVEIT.TPSA>
49.33

> <BIOSOLVEIT.SEESAR_FAVORITE>
favorite

> <smc_score>
0.563

> <QED_score>
0.66

> <distance>
0.606

> <SimilarityPheSA_1>
0.787

> <Smiles>
O=C1N(Cc2cc(Cl)ccc2Cl)CCN1c1cnnc2c(F)cccc12

> <Similarity_SkelSpheres>
0.694

> <Cluster No>
405.0

> <QueryID>
JAN-GHE-5a013bed-2

> <SimilarityPheSA>
0.787

> <Postera series>
3-aminopyridine-like

> <PDB_code>
Mpro-x10466

> <Approach>
DGM_focussed_RL

> <ID>
20210618_713

> <SimilarityPheSA_2>
0.857

> <OPTIBRIUM.logD>
4.68928

> <OPTIBRIUM.BBB category>
-

> <OPTIBRIUM.logP>
4.68928

> <OPTIBRIUM.P-gp category>
no

> <OPTIBRIUM.logS>
-0.551877

> <OPTIBRIUM.HIA category>
+

> <OPTIBRIUM.PPB90 category>
high

> <OPTIBRIUM.2D6 affinity category>
medium

> <OPTIBRIUM.hERG pIC50>
6.08852

> <OPTIBRIUM.2C9 pKi>
5.98654

> <OPTIBRIUM.BBB log([brain]:[blood])>
-0.0345051

> <OPTIBRIUM.logS @ pH7.4>
-0.551877

$$$$
Compound 413_1_07
haSeeSAR  07122111353D 1   1.00000     0.00000     0
SeeSAR 11.0.2 hazemaj
 47 50  0  0  0  0            999 V2000
    5.2864   -1.9956   26.8906 Cl  0  0  0  0  0  0  0  0  0  0  0  0
    6.9215   -2.3301   26.2714 C   0  0  0  0  0  0  0  0  0  0  0  0
    7.7418   -1.2717   25.8951 C   0  0  0  0  0  0  0  0  0  0  0  0
    7.3606   -3.6462   26.1699 C   0  0  0  0  0  0  0  0  0  0  0  0
    7.2964   -0.0012   26.0015 O   0  0  0  0  0  0  0  0  0  0  0  0
    9.0183   -1.5402   25.4125 C   0  0  0  0  0  0  0  0  0  0  0  0
    8.6406   -3.8917   25.6839 C   0  0  0  0  0  0  0  0  0  0  0  0
    6.5682    0.5877   24.9342 C   0  0  0  0  0  0  0  0  0  0  0  0
    9.4781   -2.8484   25.3026 C   0  0  0  0  0  0  0  0  0  0  0  0
    9.9304   -0.3965   24.9975 C   0  0  0  0  0  0  0  0  0  0  0  0
    9.2123   -5.5722   25.5504 Cl  0  0  0  0  0  0  0  0  0  0  0  0
   10.3332   -0.5531   23.2399 S   0  0  0  0  0  0  0  0  0  0  0  0
   11.0484    0.6186   22.8051 O   0  0  0  0  0  0  0  0  0  0  0  0
   11.1538   -1.7190   23.0376 O   0  0  0  0  0  0  0  0  0  0  0  0
    8.9061   -0.7064   22.3461 N   0  0  0  0  0  0  0  0  0  0  0  0
    8.5055    0.1348   21.3099 C   0  0  0  0  0  0  0  0  0  0  0  0
    7.8752   -1.7297   22.5762 C   0  0  0  0  0  0  0  0  0  0  0  0
    9.1311    1.1258   20.9429 O   0  0  0  0  0  0  0  0  0  0  0  0
    7.3035   -0.3068   20.7639 N   0  0  0  0  0  0  0  0  0  0  0  0
    6.9087   -1.5551   21.4214 C   0  0  0  0  0  0  0  0  0  0  0  0
    6.5818    0.3267   19.7432 C   0  0  0  0  0  0  0  0  0  0  0  0
    7.0628    0.2482   18.4418 C   0  0  0  0  0  0  0  0  0  0  0  0
    5.4037    1.0297   19.9823 C   0  0  0  0  0  0  0  0  0  0  0  0
    8.1882   -0.4264   18.2310 F   0  0  0  0  0  0  0  0  0  0  0  0
    6.4013    0.8398   17.4355 N   0  0  0  0  0  0  0  0  0  0  0  0
    4.7307    1.6378   18.9264 C   0  0  0  0  0  0  0  0  0  0  0  0
    4.8688    1.1449   21.2631 C   0  0  0  0  0  0  0  0  0  0  0  0
    5.2656    1.5211   17.6475 C   0  0  0  0  0  0  0  0  0  0  0  0
    3.5520    2.3452   19.1394 C   0  0  0  0  0  0  0  0  0  0  0  0
    3.6927    1.8462   21.5041 C   0  0  0  0  0  0  0  0  0  0  0  0
    3.0416    2.4434   20.4300 C   0  0  0  0  0  0  0  0  0  0  0  0
    6.7660   -4.4030   26.4416 H   0  0  0  0  0  0  0  0  0  0  0  0
    6.3173    1.5242   25.1785 H   0  0  0  0  0  0  0  0  0  0  0  0
    7.1348    0.5986   24.1102 H   0  0  0  0  0  0  0  0  0  0  0  0
    5.7397    0.0548   24.7619 H   0  0  0  0  0  0  0  0  0  0  0  0
   10.3967   -3.0360   24.9547 H   0  0  0  0  0  0  0  0  0  0  0  0
   10.7720   -0.4290   25.5367 H   0  0  0  0  0  0  0  0  0  0  0  0
    9.4660    0.4748   25.1567 H   0  0  0  0  0  0  0  0  0  0  0  0
    7.4139   -1.5773   23.4503 H   0  0  0  0  0  0  0  0  0  0  0  0
    8.2769   -2.6454   22.5665 H   0  0  0  0  0  0  0  0  0  0  0  0
    5.9696   -1.4903   21.7587 H   0  0  0  0  0  0  0  0  0  0  0  0
    6.9822   -2.3233   20.7853 H   0  0  0  0  0  0  0  0  0  0  0  0
    5.3433    0.7118   22.0296 H   0  0  0  0  0  0  0  0  0  0  0  0
    4.7970    1.9511   16.8759 H   0  0  0  0  0  0  0  0  0  0  0  0
    3.0769    2.7784   18.3735 H   0  0  0  0  0  0  0  0  0  0  0  0
    3.3227    1.9196   22.4303 H   0  0  0  0  0  0  0  0  0  0  0  0
    2.1943    2.9506   20.5875 H   0  0  0  0  0  0  0  0  0  0  0  0
  1  2  1  0  0  0  0
  2  3  2  0  0  0  0
  2  4  1  0  0  0  0
  3  5  1  0  0  0  0
  3  6  1  0  0  0  0
  4  7  2  0  0  0  0
  5  8  1  0  0  0  0
  6  9  2  0  0  0  0
  6 10  1  0  0  0  0
  7 11  1  0  0  0  0
 10 12  1  0  0  0  0
 12 13  2  0  0  0  0
 12 14  2  0  0  0  0
 12 15  1  0  0  0  0
 15 16  1  0  0  0  0
 15 17  1  0  0  0  0
 16 18  2  0  0  0  0
 16 19  1  0  0  0  0
 17 20  1  0  0  0  0
 19 21  1  0  0  0  0
 21 22  2  0  0  0  0
 21 23  1  0  0  0  0
 22 24  1  0  0  0  0
 22 25  1  0  0  0  0
 23 26  1  0  0  0  0
 23 27  2  0  0  0  0
 25 28  2  0  0  0  0
 26 29  2  0  0  0  0
 27 30  1  0  0  0  0
 29 31  1  0  0  0  0
  7  9  1  0  0  0  0
 19 20  1  0  0  0  0
 26 28  1  0  0  0  0
 30 31  2  0  0  0  0
  4 32  1  0  0  0  0
  8 33  1  0  0  0  0
  8 34  1  0  0  0  0
  8 35  1  0  0  0  0
  9 36  1  0  0  0  0
 10 37  1  0  0  0  0
 10 38  1  0  0  0  0
 17 39  1  0  0  0  0
 17 40  1  0  0  0  0
 20 41  1  0  0  0  0
 20 42  1  0  0  0  0
 27 43  1  0  0  0  0
 28 44  1  0  0  0  0
 29 45  1  0  0  0  0
 30 46  1  0  0  0  0
 31 47  1  0  0  0  0
M  END
> <BIOSOLVEIT.HYDE_ESTIMATED_AFFINITY_LOWER_BOUNDARY [nM]>
477680.963871

> <BIOSOLVEIT.HYDE_ESTIMATED_AFFINITY_UPPER_BOUNDARY [nM]>
47460428.033949

> <BIOSOLVEIT.HYDE_LIGAND_EFFICIENCY range: ++, +, 0, -, -->
--

> <BIOSOLVEIT.HYDE_LIGAND_LIPOPHILIC_EFFICIENCY range: ++, +, 0, -, -->
--

> <BIOSOLVEIT.INTER_CLASH range: red, yellow, green>
green

> <BIOSOLVEIT.INTRA_CLASH range: red, yellow, green>
green

> <BIOSOLVEIT.LOGP>
5.1119

> <BIOSOLVEIT.MOLECULAR WEIGHT>
484.332

> <BIOSOLVEIT.MOLECULE_CHECKSUM>
LTEzLjI1NTU7MC40Mjc1OTc=

> <BIOSOLVEIT.TORSION_QUALITY range: red, yellow, green, not rotatable>
green

> <BIOSOLVEIT.TPSA>
79.81

> <BIOSOLVEIT.SEESAR_FAVORITE>
favorite

> <smc_score>
0.75

> <QED_score>
0.5

> <distance>
0.655

> <SimilarityPheSA_1>
0.638

> <Smiles>
COc1c(Cl)cc(Cl)cc1CS(=O)(=O)N1CCN(c2c(F)ncc3ccccc23)C1=O

> <Similarity_SkelSpheres>
0.701

> <Cluster No>
211.0

> <QueryID>
PET-UNK-c9c1e0d8-3

> <SimilarityPheSA>
0.6376

> <Postera series>
3-aminopyridine-like

> <PDB_code>
Mpro-x12587

> <Approach>
DGM_focussed_RL

> <ID>
20210618_412

> <SimilarityPheSA_2>
0.729

> <OPTIBRIUM.logD>
3.2737

> <OPTIBRIUM.BBB category>
-

> <OPTIBRIUM.logP>
3.2737

> <OPTIBRIUM.P-gp category>
yes

> <OPTIBRIUM.logS>
-0.435268

> <OPTIBRIUM.HIA category>
+

> <OPTIBRIUM.PPB90 category>
high

> <OPTIBRIUM.2D6 affinity category>
medium

> <OPTIBRIUM.hERG pIC50>
5.81388

> <OPTIBRIUM.2C9 pKi>
5.97686

> <OPTIBRIUM.BBB log([brain]:[blood])>
-0.733853

> <OPTIBRIUM.logS @ pH7.4>
-0.435268

$$$$
Compound 413_1_08
haSeeSAR  07122111353D 1   1.00000     0.00000     0
SeeSAR 11.0.2 hazemaj
 47 50  0  0  0  0            999 V2000
    5.2850   -2.0027   26.8950 Cl  0  0  0  0  0  0  0  0  0  0  0  0
    6.9201   -2.3343   26.2741 C   0  0  0  0  0  0  0  0  0  0  0  0
    7.7385   -1.2742   25.8981 C   0  0  0  0  0  0  0  0  0  0  0  0
    7.3611   -3.6496   26.1710 C   0  0  0  0  0  0  0  0  0  0  0  0
    7.2913   -0.0045   26.0061 O   0  0  0  0  0  0  0  0  0  0  0  0
    9.0150   -1.5404   25.4141 C   0  0  0  0  0  0  0  0  0  0  0  0
    8.6410   -3.8928   25.6837 C   0  0  0  0  0  0  0  0  0  0  0  0
    6.5618    0.5844   24.9396 C   0  0  0  0  0  0  0  0  0  0  0  0
    9.4766   -2.8478   25.3026 C   0  0  0  0  0  0  0  0  0  0  0  0
    9.9250   -0.3949   24.9995 C   0  0  0  0  0  0  0  0  0  0  0  0
    9.2151   -5.5721   25.5483 Cl  0  0  0  0  0  0  0  0  0  0  0  0
   10.3277   -0.5502   23.2417 S   0  0  0  0  0  0  0  0  0  0  0  0
   11.0426    0.6220   22.8077 O   0  0  0  0  0  0  0  0  0  0  0  0
   11.1488   -1.7157   23.0386 O   0  0  0  0  0  0  0  0  0  0  0  0
    8.9007   -0.7034   22.3479 N   0  0  0  0  0  0  0  0  0  0  0  0
    8.5007    0.1372   21.3111 C   0  0  0  0  0  0  0  0  0  0  0  0
    7.8692   -1.7259   22.5786 C   0  0  0  0  0  0  0  0  0  0  0  0
    9.1270    1.1276   20.9433 O   0  0  0  0  0  0  0  0  0  0  0  0
    7.2985   -0.3041   20.7652 N   0  0  0  0  0  0  0  0  0  0  0  0
    6.9029   -1.5517   21.4236 C   0  0  0  0  0  0  0  0  0  0  0  0
    6.5774    0.3289   19.7440 C   0  0  0  0  0  0  0  0  0  0  0  0
    7.0582    0.2516   18.4428 C   0  0  0  0  0  0  0  0  0  0  0  0
    5.3998    1.0314   19.9817 C   0  0  0  0  0  0  0  0  0  0  0  0
    8.1837   -0.4227   18.2349 F   0  0  0  0  0  0  0  0  0  0  0  0
    6.4030    0.8414   17.4321 N   0  0  0  0  0  0  0  0  0  0  0  0
    4.7336    1.6372   18.9204 C   0  0  0  0  0  0  0  0  0  0  0  0
    4.8689    1.1444   21.2632 C   0  0  0  0  0  0  0  0  0  0  0  0
    5.2670    1.5229   17.6409 C   0  0  0  0  0  0  0  0  0  0  0  0
    3.5568    2.3401   19.1558 C   0  0  0  0  0  0  0  0  0  0  0  0
    3.6924    1.8447   21.5090 C   0  0  0  0  0  0  0  0  0  0  0  0
    3.0356    2.4453   20.4409 C   0  0  0  0  0  0  0  0  0  0  0  0
    6.7679   -4.4074   26.4426 H   0  0  0  0  0  0  0  0  0  0  0  0
    6.3097    1.5205   25.1851 H   0  0  0  0  0  0  0  0  0  0  0  0
    7.1280    0.5971   24.1154 H   0  0  0  0  0  0  0  0  0  0  0  0
    5.7340    0.0505   24.7672 H   0  0  0  0  0  0  0  0  0  0  0  0
   10.3952   -3.0337   24.9539 H   0  0  0  0  0  0  0  0  0  0  0  0
   10.7667   -0.4262   25.5384 H   0  0  0  0  0  0  0  0  0  0  0  0
    9.4591    0.4754   25.1591 H   0  0  0  0  0  0  0  0  0  0  0  0
    7.4079   -1.5726   23.4525 H   0  0  0  0  0  0  0  0  0  0  0  0
    8.2703   -2.6419   22.5697 H   0  0  0  0  0  0  0  0  0  0  0  0
    5.9638   -1.4862   21.7607 H   0  0  0  0  0  0  0  0  0  0  0  0
    6.9761   -2.3204   20.7881 H   0  0  0  0  0  0  0  0  0  0  0  0
    5.3458    0.7105   22.0277 H   0  0  0  0  0  0  0  0  0  0  0  0
    4.7987    1.9531   16.8690 H   0  0  0  0  0  0  0  0  0  0  0  0
    3.0799    2.7750   18.3921 H   0  0  0  0  0  0  0  0  0  0  0  0
    3.3259    1.9148   22.4368 H   0  0  0  0  0  0  0  0  0  0  0  0
    2.1882    2.9529   20.5966 H   0  0  0  0  0  0  0  0  0  0  0  0
  1  2  1  0  0  0  0
  2  3  2  0  0  0  0
  2  4  1  0  0  0  0
  3  5  1  0  0  0  0
  3  6  1  0  0  0  0
  4  7  2  0  0  0  0
  5  8  1  0  0  0  0
  6  9  2  0  0  0  0
  6 10  1  0  0  0  0
  7 11  1  0  0  0  0
 10 12  1  0  0  0  0
 12 13  2  0  0  0  0
 12 14  2  0  0  0  0
 12 15  1  0  0  0  0
 15 16  1  0  0  0  0
 15 17  1  0  0  0  0
 16 18  2  0  0  0  0
 16 19  1  0  0  0  0
 17 20  1  0  0  0  0
 19 21  1  0  0  0  0
 21 22  2  0  0  0  0
 21 23  1  0  0  0  0
 22 24  1  0  0  0  0
 22 25  1  0  0  0  0
 23 26  1  0  0  0  0
 23 27  2  0  0  0  0
 25 28  2  0  0  0  0
 26 29  2  0  0  0  0
 27 30  1  0  0  0  0
 29 31  1  0  0  0  0
  7  9  1  0  0  0  0
 19 20  1  0  0  0  0
 26 28  1  0  0  0  0
 30 31  2  0  0  0  0
  4 32  1  0  0  0  0
  8 33  1  0  0  0  0
  8 34  1  0  0  0  0
  8 35  1  0  0  0  0
  9 36  1  0  0  0  0
 10 37  1  0  0  0  0
 10 38  1  0  0  0  0
 17 39  1  0  0  0  0
 17 40  1  0  0  0  0
 20 41  1  0  0  0  0
 20 42  1  0  0  0  0
 27 43  1  0  0  0  0
 28 44  1  0  0  0  0
 29 45  1  0  0  0  0
 30 46  1  0  0  0  0
 31 47  1  0  0  0  0
M  END
> <BIOSOLVEIT.HYDE_ESTIMATED_AFFINITY_LOWER_BOUNDARY [nM]>
478879.882703

> <BIOSOLVEIT.HYDE_ESTIMATED_AFFINITY_UPPER_BOUNDARY [nM]>
47579547.708511

> <BIOSOLVEIT.HYDE_LIGAND_EFFICIENCY range: ++, +, 0, -, -->
--

> <BIOSOLVEIT.HYDE_LIGAND_LIPOPHILIC_EFFICIENCY range: ++, +, 0, -, -->
--

> <BIOSOLVEIT.INTER_CLASH range: red, yellow, green>
green

> <BIOSOLVEIT.INTRA_CLASH range: red, yellow, green>
green

> <BIOSOLVEIT.LOGP>
5.1119

> <BIOSOLVEIT.MOLECULAR WEIGHT>
484.332

> <BIOSOLVEIT.MOLECULE_CHECKSUM>
LTEzLjI0OTM7MC40MjczOTc=

> <BIOSOLVEIT.TORSION_QUALITY range: red, yellow, green, not rotatable>
green

> <BIOSOLVEIT.TPSA>
79.81

> <BIOSOLVEIT.SEESAR_FAVORITE>
favorite

> <smc_score>
0.75

> <QED_score>
0.5

> <distance>
0.655

> <SimilarityPheSA_1>
0.638

> <Smiles>
COc1c(Cl)cc(Cl)cc1CS(=O)(=O)N1CCN(c2c(F)ncc3ccccc23)C1=O

> <Similarity_SkelSpheres>
0.701

> <Cluster No>
211.0

> <QueryID>
PET-UNK-c9c1e0d8-3

> <SimilarityPheSA>
0.6376

> <Postera series>
3-aminopyridine-like

> <PDB_code>
Mpro-x12587

> <Approach>
DGM_focussed_RL

> <ID>
20210618_412

> <SimilarityPheSA_2>
0.729

> <OPTIBRIUM.logD>
3.2737

> <OPTIBRIUM.BBB category>
-

> <OPTIBRIUM.logP>
3.2737

> <OPTIBRIUM.P-gp category>
yes

> <OPTIBRIUM.logS>
-0.435268

> <OPTIBRIUM.HIA category>
+

> <OPTIBRIUM.PPB90 category>
high

> <OPTIBRIUM.2D6 affinity category>
medium

> <OPTIBRIUM.hERG pIC50>
5.81388

> <OPTIBRIUM.2C9 pKi>
5.97686

> <OPTIBRIUM.BBB log([brain]:[blood])>
-0.733853

> <OPTIBRIUM.logS @ pH7.4>
-0.435268

$$$$
Compound 115_1_009
haSeeSAR  07122111353D 1   1.00000     0.00000     0
SeeSAR 11.0.2 hazemaj
 54 57  0  0  0  0            999 V2000
    7.4405   -2.3512   23.4495 Cl  0  0  0  0  0  0  0  0  0  0  0  0
    7.9041   -1.3785   24.8663 C   0  0  0  0  0  0  0  0  0  0  0  0
    8.5722   -1.9669   25.9351 C   0  0  0  0  0  0  0  0  0  0  0  0
    7.5979   -0.0218   24.9092 C   0  0  0  0  0  0  0  0  0  0  0  0
    8.9594   -3.7031   25.8725 Cl  0  0  0  0  0  0  0  0  0  0  0  0
    8.9382   -1.2140   27.0462 C   0  0  0  0  0  0  0  0  0  0  0  0
    7.9610    0.7382   26.0167 C   0  0  0  0  0  0  0  0  0  0  0  0
    6.8678    0.6303   23.7462 C   0  0  0  0  0  0  0  0  0  0  0  0
    8.6294    0.1418   27.0804 C   0  0  0  0  0  0  0  0  0  0  0  0
    7.8100    1.4555   22.9769 N   0  0  0  0  0  0  0  0  0  0  0  0
    8.1677    1.0885   21.7571 C   0  0  0  0  0  0  0  0  0  0  0  0
    8.3551    2.6887   23.5627 C   0  0  0  0  0  0  0  0  0  0  0  0
    9.0690    1.6897   21.1728 O   0  0  0  0  0  0  0  0  0  0  0  0
    7.4656   -0.0757   21.0774 C   0  0  0  0  0  0  0  0  0  0  0  0
    7.2807    3.7639   23.5703 C   0  0  1  0  0  0  0  0  0  0  0  0
    6.6818    0.4354   19.8776 C   0  0  0  0  0  0  0  0  0  0  0  0
    7.7200    4.7901   24.6032 C   0  0  0  0  0  0  0  0  0  0  0  0
    7.1692    4.2447   22.1219 C   0  0  0  0  0  0  0  0  0  0  0  0
    5.4678    1.1106   19.9974 C   0  0  0  0  0  0  0  0  0  0  0  0
    7.2091    0.2138   18.6092 C   0  0  0  0  0  0  0  0  0  0  0  0
    8.5962    5.8809   24.0057 C   0  0  0  0  0  0  0  0  0  0  0  0
    7.2225    5.7578   21.9511 C   0  0  0  0  0  0  0  0  0  0  0  0
    4.8107    1.5468   18.8511 C   0  0  0  0  0  0  0  0  0  0  0  0
    4.8792    1.3680   21.2339 C   0  0  0  0  0  0  0  0  0  0  0  0
    6.5585    0.6436   17.5178 N   0  0  0  0  0  0  0  0  0  0  0  0
    9.5235    6.3252   24.6654 O   0  0  0  0  0  0  0  0  0  0  0  0
    8.3343    6.3468   22.7103 N   0  0  0  0  0  0  0  0  0  0  0  0
    5.3896    1.2948   17.6114 C   0  0  0  0  0  0  0  0  0  0  0  0
    3.5988    2.2231   18.9418 C   0  0  0  0  0  0  0  0  0  0  0  0
    3.6681    2.0421   21.3479 C   0  0  0  0  0  0  0  0  0  0  0  0
    3.0308    2.4690   20.1874 C   0  0  0  0  0  0  0  0  0  0  0  0
    9.4179   -1.6427   27.8117 H   0  0  0  0  0  0  0  0  0  0  0  0
    7.7414    1.7133   26.0476 H   0  0  0  0  0  0  0  0  0  0  0  0
    6.1296    1.2066   24.0971 H   0  0  0  0  0  0  0  0  0  0  0  0
    6.4846   -0.0784   23.1537 H   0  0  0  0  0  0  0  0  0  0  0  0
    8.8895    0.6909   27.8746 H   0  0  0  0  0  0  0  0  0  0  0  0
    9.1343    3.0001   23.0189 H   0  0  0  0  0  0  0  0  0  0  0  0
    8.6534    2.5089   24.5001 H   0  0  0  0  0  0  0  0  0  0  0  0
    6.8390   -0.5107   21.7241 H   0  0  0  0  0  0  0  0  0  0  0  0
    8.1454   -0.7426   20.7720 H   0  0  0  0  0  0  0  0  0  0  0  0
    6.4105    3.3606   23.8534 H   0  0  0  0  0  0  0  0  0  0  0  0
    8.2353    4.3222   25.3211 H   0  0  0  0  0  0  0  0  0  0  0  0
    6.9059    5.2144   25.0000 H   0  0  0  0  0  0  0  0  0  0  0  0
    6.2993    3.9192   21.7510 H   0  0  0  0  0  0  0  0  0  0  0  0
    7.9237    3.8451   21.6014 H   0  0  0  0  0  0  0  0  0  0  0  0
    8.0792   -0.2692   18.5106 H   0  0  0  0  0  0  0  0  0  0  0  0
    6.3626    6.1520   22.2756 H   0  0  0  0  0  0  0  0  0  0  0  0
    7.3421    5.9714   20.9815 H   0  0  0  0  0  0  0  0  0  0  0  0
    5.3417    1.0585   22.0647 H   0  0  0  0  0  0  0  0  0  0  0  0
    8.8961    7.0698   22.3083 H   0  0  0  0  0  0  0  0  0  0  0  0
    4.9283    1.6030   16.7794 H   0  0  0  0  0  0  0  0  0  0  0  0
    3.1358    2.5328   18.1114 H   0  0  0  0  0  0  0  0  0  0  0  0
    3.2637    2.2165   22.2458 H   0  0  0  0  0  0  0  0  0  0  0  0
    2.1593    2.9554   20.2490 H   0  0  0  0  0  0  0  0  0  0  0  0
  1  2  1  0  0  0  0
  2  3  2  0  0  0  0
  2  4  1  0  0  0  0
  3  5  1  0  0  0  0
  3  6  1  0  0  0  0
  4  7  2  0  0  0  0
  4  8  1  0  0  0  0
  6  9  2  0  0  0  0
  8 10  1  0  0  0  0
 10 11  1  0  0  0  0
 10 12  1  0  0  0  0
 11 13  2  0  0  0  0
 11 14  1  0  0  0  0
 12 15  1  0  0  0  0
 14 16  1  0  0  0  0
 15 17  1  0  0  0  0
 15 18  1  0  0  0  0
 16 19  1  0  0  0  0
 16 20  2  0  0  0  0
 17 21  1  0  0  0  0
 18 22  1  0  0  0  0
 19 23  1  0  0  0  0
 19 24  2  0  0  0  0
 20 25  1  0  0  0  0
 21 26  2  0  0  0  0
 21 27  1  0  0  0  0
 23 28  1  0  0  0  0
 23 29  2  0  0  0  0
 24 30  1  0  0  0  0
 29 31  1  0  0  0  0
  7  9  1  0  0  0  0
 22 27  1  0  0  0  0
 25 28  2  0  0  0  0
 30 31  2  0  0  0  0
  6 32  1  0  0  0  0
  7 33  1  0  0  0  0
  8 34  1  0  0  0  0
  8 35  1  0  0  0  0
  9 36  1  0  0  0  0
 12 37  1  0  0  0  0
 12 38  1  0  0  0  0
 14 39  1  0  0  0  0
 14 40  1  0  0  0  0
 15 41  1  0  0  0  0
 17 42  1  0  0  0  0
 17 43  1  0  0  0  0
 18 44  1  0  0  0  0
 18 45  1  0  0  0  0
 20 46  1  0  0  0  0
 22 47  1  0  0  0  0
 22 48  1  0  0  0  0
 24 49  1  0  0  0  0
 27 50  1  0  0  0  0
 28 51  1  0  0  0  0
 29 52  1  0  0  0  0
 30 53  1  0  0  0  0
 31 54  1  0  0  0  0
M  END
> <BIOSOLVEIT.HYDE_ESTIMATED_AFFINITY_LOWER_BOUNDARY [nM]>
499843.002802

> <BIOSOLVEIT.HYDE_ESTIMATED_AFFINITY_UPPER_BOUNDARY [nM]>
49662357.634120

> <BIOSOLVEIT.HYDE_LIGAND_EFFICIENCY range: ++, +, 0, -, -->
--

> <BIOSOLVEIT.HYDE_LIGAND_LIPOPHILIC_EFFICIENCY range: ++, +, 0, -, -->
--

> <BIOSOLVEIT.INTER_CLASH range: red, yellow, green>
green

> <BIOSOLVEIT.INTRA_CLASH range: red, yellow, green>
green

> <BIOSOLVEIT.LOGP>
4.6391

> <BIOSOLVEIT.MOLECULAR WEIGHT>
456.371

> <BIOSOLVEIT.MOLECULE_CHECKSUM>
LTEzLjE0MzE7MC40MjM5NzE=

> <BIOSOLVEIT.TORSION_QUALITY range: red, yellow, green, not rotatable>
green

> <BIOSOLVEIT.TPSA>
62.3

> <BIOSOLVEIT.SEESAR_FAVORITE>
favorite

> <smc_score>
0.563

> <QED_score>
0.588

> <distance>
0.577

> <SimilarityPheSA_1>
0.637

> <Smiles>
O=C1CC(CN(Cc2cccc(Cl)c2Cl)C(=O)Cc2cncc3ccccc23)CCN1

> <Similarity_SkelSpheres>
0.752

> <Cluster No>
53.0

> <QueryID>
ALP-POS-c59291d4-4

> <SimilarityPheSA>
0.6367

> <Postera series>
3-aminopyridine-like

> <PDB_code>
Mpro-x10820

> <Approach>
DGM_focussed_RL

> <ID>
20210618_114

> <SimilarityPheSA_2>
0.708

> <OPTIBRIUM.logD>
3.63568

> <OPTIBRIUM.BBB category>
-

> <OPTIBRIUM.logP>
3.63568

> <OPTIBRIUM.P-gp category>
yes

> <OPTIBRIUM.logS>
0.933199

> <OPTIBRIUM.HIA category>
+

> <OPTIBRIUM.PPB90 category>
high

> <OPTIBRIUM.2D6 affinity category>
high

> <OPTIBRIUM.hERG pIC50>
5.21475

> <OPTIBRIUM.2C9 pKi>
5.6623

> <OPTIBRIUM.BBB log([brain]:[blood])>
-0.305748

> <OPTIBRIUM.logS @ pH7.4>
0.933199

$$$$
Compound 672_1_006
haSeeSAR  07122111353D 1   1.00000     0.00000     0
SeeSAR 11.0.2 hazemaj
 50 53  0  0  0  0            999 V2000
    2.4812   -5.7744   27.8141 Cl  0  0  0  0  0  0  0  0  0  0  0  0
    4.0321   -5.0607   27.3072 C   0  0  0  0  0  0  0  0  0  0  0  0
    4.0816   -3.7282   26.9136 C   0  0  0  0  0  0  0  0  0  0  0  0
    5.1900   -5.8353   27.3152 C   0  0  0  0  0  0  0  0  0  0  0  0
    2.6088   -2.7307   26.9356 Cl  0  0  0  0  0  0  0  0  0  0  0  0
    5.2881   -3.1729   26.5025 C   0  0  0  0  0  0  0  0  0  0  0  0
    6.4102   -5.2832   26.9423 C   0  0  0  0  0  0  0  0  0  0  0  0
    6.4305   -3.9645   26.5111 C   0  0  0  0  0  0  0  0  0  0  0  0
    7.5616   -5.9864   27.0345 O   0  0  0  0  0  0  0  0  0  0  0  0
    7.7811   -3.3988   26.0998 C   0  0  1  0  0  0  0  0  0  0  0  0
    8.7085   -5.3002   27.5353 C   0  0  0  0  0  0  0  0  0  0  0  0
    8.6884   -3.7980   27.2495 C   0  0  0  0  0  0  0  0  0  0  0  0
    8.2378   -3.9435   24.7576 C   0  0  0  0  0  0  0  0  0  0  0  0
    9.5622   -3.3034   24.3752 C   0  0  0  0  0  0  0  0  0  0  0  0
   10.6213   -3.8229   24.7270 O   0  0  0  0  0  0  0  0  0  0  0  0
    9.5776   -2.1248   23.6238 N   0  0  0  0  0  0  0  0  0  0  0  0
    8.4702   -1.1749   23.5320 C   0  0  0  0  0  0  0  0  0  0  0  0
   10.7038   -1.6459   22.8265 C   0  0  0  0  0  0  0  0  0  0  0  0
    9.1184    0.1417   23.1447 C   0  0  1  0  0  0  0  0  0  0  0  0
   10.6081   -0.1600   23.0895 C   0  0  0  0  0  0  0  0  0  0  0  0
    8.5683    0.5866   21.7993 C   0  0  0  0  0  0  0  0  0  0  0  0
    9.2305    1.3354   21.0808 O   0  0  0  0  0  0  0  0  0  0  0  0
    7.3780    0.1691   21.4006 N   0  0  0  0  0  0  0  0  0  0  0  0
    6.8706    0.5795   20.1597 C   0  0  0  0  0  0  0  0  0  0  0  0
    7.4618    0.1950   18.9601 C   0  0  0  0  0  0  0  0  0  0  0  0
    5.7455    1.3943   20.1045 C   0  0  0  0  0  0  0  0  0  0  0  0
    6.9616    0.5973   17.7817 N   0  0  0  0  0  0  0  0  0  0  0  0
    5.2396    1.8015   18.8733 C   0  0  0  0  0  0  0  0  0  0  0  0
    5.8752    1.3818   17.7089 C   0  0  0  0  0  0  0  0  0  0  0  0
    5.3804    1.7787   16.5412 F   0  0  0  0  0  0  0  0  0  0  0  0
    5.1430   -6.7954   27.5910 H   0  0  0  0  0  0  0  0  0  0  0  0
    5.3333   -2.2191   26.2052 H   0  0  0  0  0  0  0  0  0  0  0  0
    7.7236   -2.4016   26.0520 H   0  0  0  0  0  0  0  0  0  0  0  0
    9.5239   -5.6931   27.1102 H   0  0  0  0  0  0  0  0  0  0  0  0
    8.7512   -5.4343   28.5253 H   0  0  0  0  0  0  0  0  0  0  0  0
    8.3771   -3.3254   28.0741 H   0  0  0  0  0  0  0  0  0  0  0  0
    9.6197   -3.5073   27.0303 H   0  0  0  0  0  0  0  0  0  0  0  0
    7.5519   -3.7322   24.0613 H   0  0  0  0  0  0  0  0  0  0  0  0
    8.3530   -4.9348   24.8220 H   0  0  0  0  0  0  0  0  0  0  0  0
    8.0035   -1.0919   24.4125 H   0  0  0  0  0  0  0  0  0  0  0  0
    7.8155   -1.4639   22.8336 H   0  0  0  0  0  0  0  0  0  0  0  0
   10.5870   -1.8583   21.8563 H   0  0  0  0  0  0  0  0  0  0  0  0
   11.5720   -2.0236   23.1483 H   0  0  0  0  0  0  0  0  0  0  0  0
    8.9323    0.8357   23.8402 H   0  0  0  0  0  0  0  0  0  0  0  0
   11.0429    0.3553   22.3510 H   0  0  0  0  0  0  0  0  0  0  0  0
   11.0448    0.0709   23.9591 H   0  0  0  0  0  0  0  0  0  0  0  0
    6.8400   -0.4391   21.9842 H   0  0  0  0  0  0  0  0  0  0  0  0
    8.2724   -0.3905   18.9765 H   0  0  0  0  0  0  0  0  0  0  0  0
    5.2994    1.6882   20.9499 H   0  0  0  0  0  0  0  0  0  0  0  0
    4.4305    2.3874   18.8263 H   0  0  0  0  0  0  0  0  0  0  0  0
  1  2  1  0  0  0  0
  2  3  2  0  0  0  0
  2  4  1  0  0  0  0
  3  5  1  0  0  0  0
  3  6  1  0  0  0  0
  4  7  2  0  0  0  0
  6  8  2  0  0  0  0
  7  9  1  0  0  0  0
  8 10  1  0  0  0  0
  9 11  1  0  0  0  0
 10 12  1  0  0  0  0
 10 13  1  0  0  0  0
 13 14  1  0  0  0  0
 14 15  2  0  0  0  0
 14 16  1  0  0  0  0
 16 17  1  0  0  0  0
 16 18  1  0  0  0  0
 17 19  1  0  0  0  0
 18 20  1  0  0  0  0
 19 21  1  0  0  0  0
 21 22  2  0  0  0  0
 21 23  1  0  0  0  0
 23 24  1  0  0  0  0
 24 25  2  0  0  0  0
 24 26  1  0  0  0  0
 25 27  1  0  0  0  0
 26 28  2  0  0  0  0
 27 29  2  0  0  0  0
 29 30  1  0  0  0  0
  7  8  1  0  0  0  0
 11 12  1  0  0  0  0
 19 20  1  0  0  0  0
 28 29  1  0  0  0  0
  4 31  1  0  0  0  0
  6 32  1  0  0  0  0
 10 33  1  0  0  0  0
 11 34  1  0  0  0  0
 11 35  1  0  0  0  0
 12 36  1  0  0  0  0
 12 37  1  0  0  0  0
 13 38  1  0  0  0  0
 13 39  1  0  0  0  0
 17 40  1  0  0  0  0
 17 41  1  0  0  0  0
 18 42  1  0  0  0  0
 18 43  1  0  0  0  0
 19 44  1  0  0  0  0
 20 45  1  0  0  0  0
 20 46  1  0  0  0  0
 23 47  1  0  0  0  0
 25 48  1  0  0  0  0
 26 49  1  0  0  0  0
 28 50  1  0  0  0  0
M  END
> <BIOSOLVEIT.HYDE_ESTIMATED_AFFINITY_LOWER_BOUNDARY [nM]>
515444.770690

> <BIOSOLVEIT.HYDE_ESTIMATED_AFFINITY_UPPER_BOUNDARY [nM]>
51212485.518764

> <BIOSOLVEIT.HYDE_LIGAND_EFFICIENCY range: ++, +, 0, -, -->
--

> <BIOSOLVEIT.HYDE_LIGAND_LIPOPHILIC_EFFICIENCY range: ++, +, 0, -, -->
--

> <BIOSOLVEIT.INTER_CLASH range: red, yellow, green>
yellow

> <BIOSOLVEIT.INTRA_CLASH range: red, yellow, green>
green

> <BIOSOLVEIT.LOGP>
4.2709

> <BIOSOLVEIT.MOLECULAR WEIGHT>
452.311

> <BIOSOLVEIT.MOLECULE_CHECKSUM>
LTEzLjA2Njk7MC40MzU1NjM=

> <BIOSOLVEIT.TORSION_QUALITY range: red, yellow, green, not rotatable>
yellow

> <BIOSOLVEIT.TPSA>
71.53

> <BIOSOLVEIT.SEESAR_FAVORITE>
favorite

> <smc_score>
0.75

> <QED_score>
0.704

> <distance>
0.615

> <SimilarityPheSA_1>
0.645

> <Smiles>
O=C(Nc1ccc(F)nc1)C1CCN(C(=O)CC2CCOc3cc(Cl)c(Cl)cc32)C1

> <Similarity_SkelSpheres>
0.696

> <Cluster No>
374.0

> <QueryID>
MAR-UCB-f313ec4d-2

> <SimilarityPheSA>
0.6447

> <Postera series>
None

> <PDB_code>
Mpro-x11813

> <Approach>
DGM_focussed_RL

> <ID>
20210618_671

> <SimilarityPheSA_2>
0.633

> <OPTIBRIUM.logD>
3.09117

> <OPTIBRIUM.BBB category>
-

> <OPTIBRIUM.logP>
3.09117

> <OPTIBRIUM.P-gp category>
yes

> <OPTIBRIUM.logS>
1.04293

> <OPTIBRIUM.HIA category>
+

> <OPTIBRIUM.PPB90 category>
high

> <OPTIBRIUM.2D6 affinity category>
high

> <OPTIBRIUM.hERG pIC50>
5.23017

> <OPTIBRIUM.2C9 pKi>
5.85779

> <OPTIBRIUM.BBB log([brain]:[blood])>
-0.639822

> <OPTIBRIUM.logS @ pH7.4>
1.04293

$$$$
Compound 428_1_2
haSeeSAR  07122111353D 1   1.00000     0.00000     0
SeeSAR 11.0.2 hazemaj
 48 52  0  0  0  0            999 V2000
    9.0682   -2.1633   27.4271 Cl  0  0  0  0  0  0  0  0  0  0  0  0
    8.4638   -2.2952   25.7583 C   0  0  0  0  0  0  0  0  0  0  0  0
    7.6838   -3.3936   25.4021 C   0  0  0  0  0  0  0  0  0  0  0  0
    8.7483   -1.3135   24.8141 C   0  0  0  0  0  0  0  0  0  0  0  0
    7.2773   -4.6703   26.5774 Cl  0  0  0  0  0  0  0  0  0  0  0  0
    7.2166   -3.4900   24.0940 C   0  0  0  0  0  0  0  0  0  0  0  0
    8.3011   -1.3899   23.5084 C   0  0  0  0  0  0  0  0  0  0  0  0
    9.5348   -0.0205   24.9520 C   0  0  0  0  0  0  0  0  0  0  0  0
    7.5282   -2.4980   23.1696 C   0  0  0  0  0  0  0  0  0  0  0  0
    8.7666   -0.2824   22.7962 N   0  0  0  0  0  0  0  0  0  0  0  0
    9.8957    0.2968   23.5190 C   0  0  0  0  0  0  0  0  0  0  0  0
    7.0474   -2.6568   21.9191 O   0  0  0  0  0  0  0  0  0  0  0  0
    8.2226    0.2339   21.6104 C   0  0  0  0  0  0  0  0  0  0  0  0
    6.4041   -3.8690   21.5543 C   0  0  0  0  0  0  0  0  0  0  0  0
    8.8232    1.0648   20.9867 O   0  0  0  0  0  0  0  0  0  0  0  0
    7.0059   -0.2106   21.1644 N   0  0  0  0  0  0  0  0  0  0  0  0
    6.4627    0.3050   19.9803 C   0  0  0  0  0  0  0  0  0  0  0  0
    5.3071    1.0830   19.9587 C   0  0  0  0  0  0  0  0  0  0  0  0
    7.1087    0.0252   18.7806 C   0  0  0  0  0  0  0  0  0  0  0  0
    4.8235    1.5618   18.7451 C   0  0  0  0  0  0  0  0  0  0  0  0
    4.6075    1.4057   21.1176 C   0  0  0  0  0  0  0  0  0  0  0  0
    6.6264    0.4958   17.6211 N   0  0  0  0  0  0  0  0  0  0  0  0
    5.5155    1.2460   17.5804 C   0  0  0  0  0  0  0  0  0  0  0  0
    3.6724    2.3415   18.6995 C   0  0  0  0  0  0  0  0  0  0  0  0
    3.4563    2.1830   21.0793 C   0  0  0  0  0  0  0  0  0  0  0  0
    2.9797    2.6583   19.8632 C   0  0  0  0  0  0  0  0  0  0  0  0
    2.7387    2.4998   22.3809 C   0  0  0  0  0  0  0  0  0  0  0  0
    1.3076    2.0507   22.3287 C   0  0  0  0  0  0  0  0  0  0  0  0
    1.6418    3.5093   22.2001 C   0  0  0  0  0  0  0  0  0  0  0  0
    6.6572   -4.2719   23.8191 H   0  0  0  0  0  0  0  0  0  0  0  0
   10.3539   -0.1535   25.5100 H   0  0  0  0  0  0  0  0  0  0  0  0
    8.9729    0.7035   25.3521 H   0  0  0  0  0  0  0  0  0  0  0  0
   10.7581   -0.1355   23.2557 H   0  0  0  0  0  0  0  0  0  0  0  0
    9.9578    1.2835   23.3684 H   0  0  0  0  0  0  0  0  0  0  0  0
    6.1118   -3.8171   20.5994 H   0  0  0  0  0  0  0  0  0  0  0  0
    7.0413   -4.6315   21.6668 H   0  0  0  0  0  0  0  0  0  0  0  0
    5.6062   -4.0123   22.1398 H   0  0  0  0  0  0  0  0  0  0  0  0
    6.5055   -0.9031   21.6841 H   0  0  0  0  0  0  0  0  0  0  0  0
    7.9395   -0.5314   18.7827 H   0  0  0  0  0  0  0  0  0  0  0  0
    4.9411    1.0704   21.9987 H   0  0  0  0  0  0  0  0  0  0  0  0
    5.1801    1.5830   16.7007 H   0  0  0  0  0  0  0  0  0  0  0  0
    3.3388    2.6784   17.8191 H   0  0  0  0  0  0  0  0  0  0  0  0
    2.1523    3.2186   19.8257 H   0  0  0  0  0  0  0  0  0  0  0  0
    3.2395    2.4610   23.2457 H   0  0  0  0  0  0  0  0  0  0  0  0
    0.8595    1.7115   23.1558 H   0  0  0  0  0  0  0  0  0  0  0  0
    0.9716    1.5430   21.5354 H   0  0  0  0  0  0  0  0  0  0  0  0
    1.5286    3.9726   21.3212 H   0  0  0  0  0  0  0  0  0  0  0  0
    1.4164    4.1412   22.9416 H   0  0  0  0  0  0  0  0  0  0  0  0
  1  2  1  0  0  0  0
  2  3  2  0  0  0  0
  2  4  1  0  0  0  0
  3  5  1  0  0  0  0
  3  6  1  0  0  0  0
  4  7  2  0  0  0  0
  4  8  1  0  0  0  0
  6  9  2  0  0  0  0
  7 10  1  0  0  0  0
  8 11  1  0  0  0  0
  9 12  1  0  0  0  0
 10 13  1  0  0  0  0
 12 14  1  0  0  0  0
 13 15  2  0  0  0  0
 13 16  1  0  0  0  0
 16 17  1  0  0  0  0
 17 18  1  0  0  0  0
 17 19  2  0  0  0  0
 18 20  1  0  0  0  0
 18 21  2  0  0  0  0
 19 22  1  0  0  0  0
 20 23  1  0  0  0  0
 20 24  2  0  0  0  0
 21 25  1  0  0  0  0
 24 26  1  0  0  0  0
 25 27  1  0  0  0  0
 27 28  1  0  0  0  0
 27 29  1  0  0  0  0
  7  9  1  0  0  0  0
 10 11  1  0  0  0  0
 22 23  2  0  0  0  0
 25 26  2  0  0  0  0
 28 29  1  0  0  0  0
  6 30  1  0  0  0  0
  8 31  1  0  0  0  0
  8 32  1  0  0  0  0
 11 33  1  0  0  0  0
 11 34  1  0  0  0  0
 14 35  1  0  0  0  0
 14 36  1  0  0  0  0
 14 37  1  0  0  0  0
 16 38  1  0  0  0  0
 19 39  1  0  0  0  0
 21 40  1  0  0  0  0
 23 41  1  0  0  0  0
 24 42  1  0  0  0  0
 26 43  1  0  0  0  0
 27 44  1  0  0  0  0
 28 45  1  0  0  0  0
 28 46  1  0  0  0  0
 29 47  1  0  0  0  0
 29 48  1  0  0  0  0
M  END
> <BIOSOLVEIT.HYDE_ESTIMATED_AFFINITY_LOWER_BOUNDARY [nM]>
519165.316581

> <BIOSOLVEIT.HYDE_ESTIMATED_AFFINITY_UPPER_BOUNDARY [nM]>
51582143.750633

> <BIOSOLVEIT.HYDE_LIGAND_EFFICIENCY range: ++, +, 0, -, -->
--

> <BIOSOLVEIT.HYDE_LIGAND_LIPOPHILIC_EFFICIENCY range: ++, +, 0, -, -->
--

> <BIOSOLVEIT.INTER_CLASH range: red, yellow, green>
green

> <BIOSOLVEIT.INTRA_CLASH range: red, yellow, green>
green

> <BIOSOLVEIT.LOGP>
6.0222

> <BIOSOLVEIT.MOLECULAR WEIGHT>
428.317

> <BIOSOLVEIT.MOLECULE_CHECKSUM>
LTEzLjA0OTE7MC40NDk5Njg=

> <BIOSOLVEIT.TORSION_QUALITY range: red, yellow, green, not rotatable>
green

> <BIOSOLVEIT.TPSA>
54.46

> <BIOSOLVEIT.SEESAR_FAVORITE>
favorite

> <smc_score>
0.875

> <QED_score>
0.555

> <distance>
0.614

> <SimilarityPheSA_1>
0.637

> <Smiles>
COc1cc(Cl)c(Cl)c2c1N(C(=O)Nc1cncc3ccc(C4CC4)cc13)CC2

> <Similarity_SkelSpheres>
0.682

> <Cluster No>
219.0

> <QueryID>
ALP-POS-ce760d3f-2

> <SimilarityPheSA>
0.6366

> <Postera series>
3-aminopyridine-like

> <PDB_code>
Mpro-x12659

> <Approach>
DGM_focussed_RL

> <ID>
20210618_427

> <SimilarityPheSA_2>
0.872

> <OPTIBRIUM.logD>
5.45431

> <OPTIBRIUM.BBB category>
-

> <OPTIBRIUM.logP>
5.45431

> <OPTIBRIUM.P-gp category>
yes

> <OPTIBRIUM.logS>
-0.802743

> <OPTIBRIUM.HIA category>
+

> <OPTIBRIUM.PPB90 category>
high

> <OPTIBRIUM.2D6 affinity category>
high

> <OPTIBRIUM.hERG pIC50>
6.00604

> <OPTIBRIUM.2C9 pKi>
6.15407

> <OPTIBRIUM.BBB log([brain]:[blood])>
0.075279

> <OPTIBRIUM.logS @ pH7.4>
-0.802743

$$$$
Compound 1_1_09
haSeeSAR  07122111353D 1   1.00000     0.00000     0
SeeSAR 11.0.2 hazemaj
 46 49  0  0  0  0            999 V2000
    5.6568    3.7772   25.4485 Cl  0  0  0  0  0  0  0  0  0  0  0  0
    6.9714    2.5784   25.4121 C   0  0  0  0  0  0  0  0  0  0  0  0
    7.0316    1.5924   26.3879 C   0  0  0  0  0  0  0  0  0  0  0  0
    7.9297    2.6421   24.4073 C   0  0  0  0  0  0  0  0  0  0  0  0
    5.8083    1.5355   27.6800 Cl  0  0  0  0  0  0  0  0  0  0  0  0
    8.0427    0.6372   26.3627 C   0  0  0  0  0  0  0  0  0  0  0  0
    8.9444    1.6924   24.3953 C   0  0  0  0  0  0  0  0  0  0  0  0
    8.9868    0.6938   25.3475 C   0  0  0  0  0  0  0  0  0  0  0  0
   10.1180    1.5310   23.4399 C   0  0  2  0  0  0  0  0  0  0  0  0
   10.1307   -0.2675   25.0890 C   0  0  0  0  0  0  0  0  0  0  0  0
    9.6482    1.0717   22.0681 C   0  0  0  0  0  0  0  0  0  0  0  0
   10.9644    0.4127   24.0175 C   0  0  0  0  0  0  0  0  0  0  0  0
    9.6128    1.8690   21.1308 O   0  0  0  0  0  0  0  0  0  0  0  0
    9.2777   -0.1847   21.8822 N   0  0  0  0  0  0  0  0  0  0  0  0
    8.8237   -0.6286   20.5564 C   0  0  0  0  0  0  0  0  0  0  0  0
    7.3659   -1.0517   20.6355 C   0  0  0  0  0  0  0  0  0  0  0  0
    6.5423   -0.2204   19.6606 C   0  0  0  0  0  0  0  0  0  0  0  0
    5.5871    0.7488   20.0185 C   0  0  0  0  0  0  0  0  0  0  0  0
    6.8323   -0.5184   18.3337 C   0  0  0  0  0  0  0  0  0  0  0  0
    5.2253    1.1182   21.3280 C   0  0  0  0  0  0  0  0  0  0  0  0
    4.9413    1.3989   18.9705 C   0  0  0  0  0  0  0  0  0  0  0  0
    6.1758    0.1439   17.3705 N   0  0  0  0  0  0  0  0  0  0  0  0
    5.8197    0.5234   22.5979 C   0  0  0  0  0  0  0  0  0  0  0  0
    4.2656    2.0885   21.5907 C   0  0  0  0  0  0  0  0  0  0  0  0
    5.2542    1.0772   17.6537 C   0  0  0  0  0  0  0  0  0  0  0  0
    3.9775    2.3732   19.2079 C   0  0  0  0  0  0  0  0  0  0  0  0
    6.2842    0.0587   23.5900 C   0  0  0  0  0  0  0  0  0  0  0  0
    3.6448    2.7128   20.5145 C   0  0  0  0  0  0  0  0  0  0  0  0
    7.8899    3.3559   23.7081 H   0  0  0  0  0  0  0  0  0  0  0  0
    8.0883   -0.0759   27.0623 H   0  0  0  0  0  0  0  0  0  0  0  0
   10.6436    2.3790   23.3724 H   0  0  0  0  0  0  0  0  0  0  0  0
    9.7857   -1.1476   24.7627 H   0  0  0  0  0  0  0  0  0  0  0  0
   10.6691   -0.4077   25.9198 H   0  0  0  0  0  0  0  0  0  0  0  0
   11.8003    0.7869   24.4189 H   0  0  0  0  0  0  0  0  0  0  0  0
   11.2032   -0.2425   23.3007 H   0  0  0  0  0  0  0  0  0  0  0  0
    9.3065   -0.8324   22.6435 H   0  0  0  0  0  0  0  0  0  0  0  0
    9.3798   -1.4034   20.2557 H   0  0  0  0  0  0  0  0  0  0  0  0
    8.9177    0.1226   19.9030 H   0  0  0  0  0  0  0  0  0  0  0  0
    7.0270   -0.9077   21.5652 H   0  0  0  0  0  0  0  0  0  0  0  0
    7.2864   -2.0198   20.3979 H   0  0  0  0  0  0  0  0  0  0  0  0
    7.5153   -1.2115   18.1030 H   0  0  0  0  0  0  0  0  0  0  0  0
    4.0273    2.3318   22.5309 H   0  0  0  0  0  0  0  0  0  0  0  0
    4.7851    1.5485   16.9068 H   0  0  0  0  0  0  0  0  0  0  0  0
    3.5251    2.8283   18.4410 H   0  0  0  0  0  0  0  0  0  0  0  0
    6.6745   -0.3317   24.4238 H   0  0  0  0  0  0  0  0  0  0  0  0
    2.9515    3.4137   20.6821 H   0  0  0  0  0  0  0  0  0  0  0  0
  1  2  1  0  0  0  0
  2  3  2  0  0  0  0
  2  4  1  0  0  0  0
  3  5  1  0  0  0  0
  3  6  1  0  0  0  0
  4  7  2  0  0  0  0
  6  8  2  0  0  0  0
  7  9  1  0  0  0  0
  8 10  1  0  0  0  0
  9 11  1  0  0  0  0
  9 12  1  0  0  0  0
 11 13  2  0  0  0  0
 11 14  1  0  0  0  0
 14 15  1  0  0  0  0
 15 16  1  0  0  0  0
 16 17  1  0  0  0  0
 17 18  1  0  0  0  0
 17 19  2  0  0  0  0
 18 20  2  0  0  0  0
 18 21  1  0  0  0  0
 19 22  1  0  0  0  0
 20 23  1  0  0  0  0
 20 24  1  0  0  0  0
 21 25  1  0  0  0  0
 21 26  2  0  0  0  0
 23 27  3  0  0  0  0
 24 28  2  0  0  0  0
  7  8  1  0  0  0  0
 10 12  1  0  0  0  0
 22 25  2  0  0  0  0
 26 28  1  0  0  0  0
  4 29  1  0  0  0  0
  6 30  1  0  0  0  0
  9 31  1  0  0  0  0
 10 32  1  0  0  0  0
 10 33  1  0  0  0  0
 12 34  1  0  0  0  0
 12 35  1  0  0  0  0
 14 36  1  0  0  0  0
 15 37  1  0  0  0  0
 15 38  1  0  0  0  0
 16 39  1  0  0  0  0
 16 40  1  0  0  0  0
 19 41  1  0  0  0  0
 24 42  1  0  0  0  0
 25 43  1  0  0  0  0
 26 44  1  0  0  0  0
 27 45  1  0  0  0  0
 28 46  1  0  0  0  0
M  END
> <BIOSOLVEIT.HYDE_ESTIMATED_AFFINITY_LOWER_BOUNDARY [nM]>
612714.008896

> <BIOSOLVEIT.HYDE_ESTIMATED_AFFINITY_UPPER_BOUNDARY [nM]>
60876759.435774

> <BIOSOLVEIT.HYDE_LIGAND_EFFICIENCY range: ++, +, 0, -, -->
--

> <BIOSOLVEIT.HYDE_LIGAND_LIPOPHILIC_EFFICIENCY range: ++, +, 0, -, -->
--

> <BIOSOLVEIT.INTER_CLASH range: red, yellow, green>
yellow

> <BIOSOLVEIT.INTRA_CLASH range: red, yellow, green>
yellow

> <BIOSOLVEIT.LOGP>
4.9116

> <BIOSOLVEIT.MOLECULAR WEIGHT>
409.314

> <BIOSOLVEIT.MOLECULE_CHECKSUM>
LTEyLjYzODQ7MC40NTEzNw==

> <BIOSOLVEIT.TORSION_QUALITY range: red, yellow, green, not rotatable>
yellow

> <BIOSOLVEIT.TPSA>
41.99

> <BIOSOLVEIT.SEESAR_FAVORITE>
favorite

> <smc_score>
0.688

> <QED_score>
0.622

> <distance>
0.641

> <SimilarityPheSA_1>
0.708

> <Smiles>
C#Cc1cccc2cncc(CCNC(=O)C3CCc4cc(Cl)c(Cl)cc43)c12

> <Similarity_SkelSpheres>
0.725

> <Cluster No>
1.0

> <QueryID>
ADA-UCB-6c2cb422-1

> <SimilarityPheSA>
0.7084

> <Postera series>
3-aminopyridine-like

> <PDB_code>
Mpro-x10959

> <Approach>
DGM_focussed_RL

> <ID>
20210618_0

> <SimilarityPheSA_2>
0.723

> <OPTIBRIUM.logD>
4.83063

> <OPTIBRIUM.BBB category>
+

> <OPTIBRIUM.logP>
4.83063

> <OPTIBRIUM.P-gp category>
no

> <OPTIBRIUM.logS>
-0.41578

> <OPTIBRIUM.HIA category>
+

> <OPTIBRIUM.PPB90 category>
high

> <OPTIBRIUM.2D6 affinity category>
high

> <OPTIBRIUM.hERG pIC50>
5.10131

> <OPTIBRIUM.2C9 pKi>
5.78721

> <OPTIBRIUM.BBB log([brain]:[blood])>
-0.22871

> <OPTIBRIUM.logS @ pH7.4>
-0.41578

$$$$
Compound 672_1_010
haSeeSAR  07122111353D 1   1.00000     0.00000     0
SeeSAR 11.0.2 hazemaj
 50 53  0  0  0  0            999 V2000
    6.9710   -5.6479   32.0078 Cl  0  0  0  0  0  0  0  0  0  0  0  0
    7.2934   -5.3093   30.2893 C   0  0  0  0  0  0  0  0  0  0  0  0
    8.2225   -6.0785   29.5979 C   0  0  0  0  0  0  0  0  0  0  0  0
    6.6085   -4.2832   29.6423 C   0  0  0  0  0  0  0  0  0  0  0  0
    9.0720   -7.4100   30.4161 Cl  0  0  0  0  0  0  0  0  0  0  0  0
    8.4874   -5.8061   28.2604 C   0  0  0  0  0  0  0  0  0  0  0  0
    6.8357   -4.0237   28.2954 C   0  0  0  0  0  0  0  0  0  0  0  0
    7.7986   -4.7736   27.6350 C   0  0  0  0  0  0  0  0  0  0  0  0
    6.1145   -3.0988   27.6225 O   0  0  0  0  0  0  0  0  0  0  0  0
    8.0281   -4.4530   26.1661 C   0  0  1  0  0  0  0  0  0  0  0  0
    5.6865   -3.4361   26.3035 C   0  0  0  0  0  0  0  0  0  0  0  0
    6.6218   -4.4173   25.5955 C   0  0  0  0  0  0  0  0  0  0  0  0
    8.7835   -3.1482   25.9830 C   0  0  0  0  0  0  0  0  0  0  0  0
    9.7647   -3.2882   24.8307 C   0  0  0  0  0  0  0  0  0  0  0  0
   10.5177   -4.2607   24.7781 O   0  0  0  0  0  0  0  0  0  0  0  0
    9.8124   -2.3104   23.8285 N   0  0  0  0  0  0  0  0  0  0  0  0
    8.6699   -1.5486   23.3142 C   0  0  0  0  0  0  0  0  0  0  0  0
   11.0182   -1.8674   23.1181 C   0  0  0  0  0  0  0  0  0  0  0  0
    9.2557   -0.1925   22.9708 C   0  0  1  0  0  0  0  0  0  0  0  0
   10.7525   -0.3984   22.8648 C   0  0  0  0  0  0  0  0  0  0  0  0
    8.6616    0.3504   21.6815 C   0  0  0  0  0  0  0  0  0  0  0  0
    9.2746    1.1956   21.0293 O   0  0  0  0  0  0  0  0  0  0  0  0
    7.4856   -0.0852   21.2600 N   0  0  0  0  0  0  0  0  0  0  0  0
    6.9376    0.4156   20.0707 C   0  0  0  0  0  0  0  0  0  0  0  0
    7.4882    0.1223   18.8269 C   0  0  0  0  0  0  0  0  0  0  0  0
    5.8121    1.2305   20.1139 C   0  0  0  0  0  0  0  0  0  0  0  0
    6.9492    0.6105   17.6990 N   0  0  0  0  0  0  0  0  0  0  0  0
    5.2657    1.7274   18.9340 C   0  0  0  0  0  0  0  0  0  0  0  0
    5.8617    1.3965   17.7211 C   0  0  0  0  0  0  0  0  0  0  0  0
    5.3287    1.8783   16.6032 F   0  0  0  0  0  0  0  0  0  0  0  0
    5.9487   -3.7294   30.1501 H   0  0  0  0  0  0  0  0  0  0  0  0
    9.1628   -6.3445   27.7565 H   0  0  0  0  0  0  0  0  0  0  0  0
    8.5416   -5.1974   25.7393 H   0  0  0  0  0  0  0  0  0  0  0  0
    5.6376   -2.5971   25.7615 H   0  0  0  0  0  0  0  0  0  0  0  0
    4.7776   -3.8493   26.3608 H   0  0  0  0  0  0  0  0  0  0  0  0
    6.2295   -5.3342   25.6692 H   0  0  0  0  0  0  0  0  0  0  0  0
    6.6802   -4.1561   24.6320 H   0  0  0  0  0  0  0  0  0  0  0  0
    9.2831   -2.9317   26.8219 H   0  0  0  0  0  0  0  0  0  0  0  0
    8.1358   -2.4134   25.7819 H   0  0  0  0  0  0  0  0  0  0  0  0
    7.9581   -1.4618   24.0111 H   0  0  0  0  0  0  0  0  0  0  0  0
    8.2881   -1.9869   22.5004 H   0  0  0  0  0  0  0  0  0  0  0  0
   11.1303   -2.3648   22.2578 H   0  0  0  0  0  0  0  0  0  0  0  0
   11.8334   -1.9917   23.6838 H   0  0  0  0  0  0  0  0  0  0  0  0
    9.0639    0.4465   23.7157 H   0  0  0  0  0  0  0  0  0  0  0  0
   11.0698   -0.1449   21.9511 H   0  0  0  0  0  0  0  0  0  0  0  0
   11.2247    0.1585   23.5481 H   0  0  0  0  0  0  0  0  0  0  0  0
    6.9877   -0.7719   21.7897 H   0  0  0  0  0  0  0  0  0  0  0  0
    8.2983   -0.4615   18.7727 H   0  0  0  0  0  0  0  0  0  0  0  0
    5.3947    1.4600   20.9932 H   0  0  0  0  0  0  0  0  0  0  0  0
    4.4561    2.3139   18.9576 H   0  0  0  0  0  0  0  0  0  0  0  0
  1  2  1  0  0  0  0
  2  3  2  0  0  0  0
  2  4  1  0  0  0  0
  3  5  1  0  0  0  0
  3  6  1  0  0  0  0
  4  7  2  0  0  0  0
  6  8  2  0  0  0  0
  7  9  1  0  0  0  0
  8 10  1  0  0  0  0
  9 11  1  0  0  0  0
 10 12  1  0  0  0  0
 10 13  1  0  0  0  0
 13 14  1  0  0  0  0
 14 15  2  0  0  0  0
 14 16  1  0  0  0  0
 16 17  1  0  0  0  0
 16 18  1  0  0  0  0
 17 19  1  0  0  0  0
 18 20  1  0  0  0  0
 19 21  1  0  0  0  0
 21 22  2  0  0  0  0
 21 23  1  0  0  0  0
 23 24  1  0  0  0  0
 24 25  2  0  0  0  0
 24 26  1  0  0  0  0
 25 27  1  0  0  0  0
 26 28  2  0  0  0  0
 27 29  2  0  0  0  0
 29 30  1  0  0  0  0
  7  8  1  0  0  0  0
 11 12  1  0  0  0  0
 19 20  1  0  0  0  0
 28 29  1  0  0  0  0
  4 31  1  0  0  0  0
  6 32  1  0  0  0  0
 10 33  1  0  0  0  0
 11 34  1  0  0  0  0
 11 35  1  0  0  0  0
 12 36  1  0  0  0  0
 12 37  1  0  0  0  0
 13 38  1  0  0  0  0
 13 39  1  0  0  0  0
 17 40  1  0  0  0  0
 17 41  1  0  0  0  0
 18 42  1  0  0  0  0
 18 43  1  0  0  0  0
 19 44  1  0  0  0  0
 20 45  1  0  0  0  0
 20 46  1  0  0  0  0
 23 47  1  0  0  0  0
 25 48  1  0  0  0  0
 26 49  1  0  0  0  0
 28 50  1  0  0  0  0
M  END
> <BIOSOLVEIT.HYDE_ESTIMATED_AFFINITY_LOWER_BOUNDARY [nM]>
653936.714084

> <BIOSOLVEIT.HYDE_ESTIMATED_AFFINITY_UPPER_BOUNDARY [nM]>
64972478.924051

> <BIOSOLVEIT.HYDE_LIGAND_EFFICIENCY range: ++, +, 0, -, -->
--

> <BIOSOLVEIT.HYDE_LIGAND_LIPOPHILIC_EFFICIENCY range: ++, +, 0, -, -->
--

> <BIOSOLVEIT.INTER_CLASH range: red, yellow, green>
yellow

> <BIOSOLVEIT.INTRA_CLASH range: red, yellow, green>
green

> <BIOSOLVEIT.LOGP>
4.2709

> <BIOSOLVEIT.MOLECULAR WEIGHT>
452.311

> <BIOSOLVEIT.MOLECULE_CHECKSUM>
LTEyLjQ3NzswLjQxNTg5OA==

> <BIOSOLVEIT.TORSION_QUALITY range: red, yellow, green, not rotatable>
red

> <BIOSOLVEIT.TPSA>
71.53

> <BIOSOLVEIT.SEESAR_FAVORITE>
favorite

> <smc_score>
0.75

> <QED_score>
0.704

> <distance>
0.615

> <SimilarityPheSA_1>
0.645

> <Smiles>
O=C(Nc1ccc(F)nc1)C1CCN(C(=O)CC2CCOc3cc(Cl)c(Cl)cc32)C1

> <Similarity_SkelSpheres>
0.696

> <Cluster No>
374.0

> <QueryID>
MAR-UCB-f313ec4d-2

> <SimilarityPheSA>
0.6447

> <Postera series>
None

> <PDB_code>
Mpro-x11813

> <Approach>
DGM_focussed_RL

> <ID>
20210618_671

> <SimilarityPheSA_2>
0.633

> <OPTIBRIUM.logD>
3.09117

> <OPTIBRIUM.BBB category>
-

> <OPTIBRIUM.logP>
3.09117

> <OPTIBRIUM.P-gp category>
yes

> <OPTIBRIUM.logS>
1.04293

> <OPTIBRIUM.HIA category>
+

> <OPTIBRIUM.PPB90 category>
high

> <OPTIBRIUM.2D6 affinity category>
high

> <OPTIBRIUM.hERG pIC50>
5.23017

> <OPTIBRIUM.2C9 pKi>
5.85779

> <OPTIBRIUM.BBB log([brain]:[blood])>
-0.639822

> <OPTIBRIUM.logS @ pH7.4>
1.04293

$$$$
Compound 615_1_1
haSeeSAR  07122111353D 1   1.00000     0.00000     0
SeeSAR 11.0.2 hazemaj
 25 26  0  0  0  0            999 V2000
   14.0082   -0.1359   22.8769 Cl  0  0  0  0  0  0  0  0  0  0  0  0
   12.2454    0.1052   22.8194 C   0  0  0  0  0  0  0  0  0  0  0  0
   11.7124    1.3796   22.9804 C   0  0  0  0  0  0  0  0  0  0  0  0
   11.4076   -0.9858   22.6133 C   0  0  0  0  0  0  0  0  0  0  0  0
   12.5263    2.4124   23.1773 F   0  0  0  0  0  0  0  0  0  0  0  0
   10.3368    1.5827   22.9371 C   0  0  0  0  0  0  0  0  0  0  0  0
   10.0318   -0.7857   22.5698 C   0  0  0  0  0  0  0  0  0  0  0  0
    9.5018    0.4901   22.7305 C   0  0  0  0  0  0  0  0  0  0  0  0
    8.9601   -2.1822   22.3055 Cl  0  0  0  0  0  0  0  0  0  0  0  0
    7.9975    0.7038   22.6815 C   0  0  0  0  0  0  0  0  0  0  0  0
    7.5572    0.8763   21.2369 C   0  0  0  0  0  0  0  0  0  0  0  0
    8.1150    1.6698   20.5303 O   0  0  0  0  0  0  0  0  0  0  0  0
    6.5235    0.1260   20.7416 N   0  0  0  0  0  0  0  0  0  0  0  0
    6.1327    0.2791   19.4596 N   0  0  0  0  0  0  0  0  0  0  0  0
    6.7726   -0.2165   18.3642 C   0  0  0  0  0  0  0  0  0  0  0  0
    5.0278    0.9518   19.0347 C   0  0  0  0  0  0  0  0  0  0  0  0
    6.0687    0.1570   17.3214 N   0  0  0  0  0  0  0  0  0  0  0  0
    5.0228    0.8564   17.7271 N   0  0  0  0  0  0  0  0  0  0  0  0
   11.7896   -1.9027   22.4978 H   0  0  0  0  0  0  0  0  0  0  0  0
    9.9547    2.4995   23.0526 H   0  0  0  0  0  0  0  0  0  0  0  0
    7.7601    1.5236   23.2025 H   0  0  0  0  0  0  0  0  0  0  0  0
    7.5352   -0.0891   23.0784 H   0  0  0  0  0  0  0  0  0  0  0  0
    6.0587   -0.5352   21.3305 H   0  0  0  0  0  0  0  0  0  0  0  0
    7.6130   -0.7583   18.3561 H   0  0  0  0  0  0  0  0  0  0  0  0
    4.3554    1.4235   19.6051 H   0  0  0  0  0  0  0  0  0  0  0  0
  1  2  1  0  0  0  0
  2  3  2  0  0  0  0
  2  4  1  0  0  0  0
  3  5  1  0  0  0  0
  3  6  1  0  0  0  0
  4  7  2  0  0  0  0
  6  8  2  0  0  0  0
  7  9  1  0  0  0  0
  8 10  1  0  0  0  0
 10 11  1  0  0  0  0
 11 12  2  0  0  0  0
 11 13  1  0  0  0  0
 13 14  1  0  0  0  0
 14 15  1  0  0  0  0
 14 16  1  0  0  0  0
 15 17  2  0  0  0  0
 16 18  2  0  0  0  0
  7  8  1  0  0  0  0
 17 18  1  0  0  0  0
  4 19  1  0  0  0  0
  6 20  1  0  0  0  0
 10 21  1  0  0  0  0
 10 22  1  0  0  0  0
 13 23  1  0  0  0  0
 15 24  1  0  0  0  0
 16 25  1  0  0  0  0
M  END
> <BIOSOLVEIT.HYDE_ESTIMATED_AFFINITY_LOWER_BOUNDARY [nM]>
787880.519743

> <BIOSOLVEIT.HYDE_ESTIMATED_AFFINITY_UPPER_BOUNDARY [nM]>
78280587.954797

> <BIOSOLVEIT.HYDE_LIGAND_EFFICIENCY range: ++, +, 0, -, -->
--

> <BIOSOLVEIT.HYDE_LIGAND_LIPOPHILIC_EFFICIENCY range: ++, +, 0, -, -->
--

> <BIOSOLVEIT.INTER_CLASH range: red, yellow, green>
green

> <BIOSOLVEIT.INTRA_CLASH range: red, yellow, green>
green

> <BIOSOLVEIT.LOGP>
2.0368

> <BIOSOLVEIT.MOLECULAR WEIGHT>
289.096

> <BIOSOLVEIT.MOLECULE_CHECKSUM>
LTEyLjAxNTswLjY2NzUwMg==

> <BIOSOLVEIT.TORSION_QUALITY range: red, yellow, green, not rotatable>
green

> <BIOSOLVEIT.TPSA>
59.81

> <BIOSOLVEIT.SEESAR_FAVORITE>
favorite

> <smc_score>
0.688

> <QED_score>
0.88

> <distance>
0.679

> <SimilarityPheSA_1>
0.702

> <Smiles>
O=C(Cc1cc(F)c(Cl)cc1Cl)Nn1cnnc1

> <Similarity_SkelSpheres>
0.552

> <Cluster No>
337.0

> <QueryID>
JAN-GHE-5a013bed-2

> <SimilarityPheSA>
0.702

> <Postera series>
3-aminopyridine-like

> <PDB_code>
Mpro-x10466

> <Approach>
DGM_focussed_RL

> <ID>
20210618_614

> <SimilarityPheSA_2>
0.732

> <OPTIBRIUM.logD>
2.15367

> <OPTIBRIUM.BBB category>
-

> <OPTIBRIUM.logP>
2.15367

> <OPTIBRIUM.P-gp category>
no

> <OPTIBRIUM.logS>
2.67339

> <OPTIBRIUM.HIA category>
+

> <OPTIBRIUM.PPB90 category>
high

> <OPTIBRIUM.2D6 affinity category>
medium

> <OPTIBRIUM.hERG pIC50>
4.57604

> <OPTIBRIUM.2C9 pKi>
4.28491

> <OPTIBRIUM.BBB log([brain]:[blood])>
-0.143152

> <OPTIBRIUM.logS @ pH7.4>
2.67339

$$$$
Compound 672_1_003
haSeeSAR  07122111353D 1   1.00000     0.00000     0
SeeSAR 11.0.2 hazemaj
 50 53  0  0  0  0            999 V2000
    2.6648   -6.3264   27.8482 Cl  0  0  0  0  0  0  0  0  0  0  0  0
    4.1197   -5.4489   27.3166 C   0  0  0  0  0  0  0  0  0  0  0  0
    4.3613   -5.3150   25.9552 C   0  0  0  0  0  0  0  0  0  0  0  0
    5.0219   -4.8922   28.2157 C   0  0  0  0  0  0  0  0  0  0  0  0
    3.2454   -6.0074   24.7551 Cl  0  0  0  0  0  0  0  0  0  0  0  0
    5.4801   -4.6372   25.4860 C   0  0  0  0  0  0  0  0  0  0  0  0
    6.1516   -4.2207   27.7794 C   0  0  0  0  0  0  0  0  0  0  0  0
    6.3655   -4.0916   26.4073 C   0  0  0  0  0  0  0  0  0  0  0  0
    7.0501   -3.7167   28.6580 O   0  0  0  0  0  0  0  0  0  0  0  0
    7.5891   -3.3356   25.8959 C   0  0  1  0  0  0  0  0  0  0  0  0
    7.9758   -2.7165   28.2577 C   0  0  0  0  0  0  0  0  0  0  0  0
    8.6391   -3.2210   26.9891 C   0  0  0  0  0  0  0  0  0  0  0  0
    8.2069   -4.0045   24.6803 C   0  0  0  0  0  0  0  0  0  0  0  0
    9.5317   -3.3354   24.3525 C   0  0  0  0  0  0  0  0  0  0  0  0
   10.5868   -3.8344   24.7439 O   0  0  0  0  0  0  0  0  0  0  0  0
    9.5520   -2.1535   23.6064 N   0  0  0  0  0  0  0  0  0  0  0  0
    8.4475   -1.2000   23.5167 C   0  0  0  0  0  0  0  0  0  0  0  0
   10.6811   -1.6744   22.8134 C   0  0  0  0  0  0  0  0  0  0  0  0
    9.1003    0.1164   23.1365 C   0  0  1  0  0  0  0  0  0  0  0  0
   10.5892   -0.1894   23.0829 C   0  0  0  0  0  0  0  0  0  0  0  0
    8.5541    0.5689   21.7921 C   0  0  0  0  0  0  0  0  0  0  0  0
    9.2204    1.3179   21.0776 O   0  0  0  0  0  0  0  0  0  0  0  0
    7.3627    0.1578   21.3899 N   0  0  0  0  0  0  0  0  0  0  0  0
    6.8589    0.5752   20.1499 C   0  0  0  0  0  0  0  0  0  0  0  0
    7.4532    0.1970   18.9498 C   0  0  0  0  0  0  0  0  0  0  0  0
    5.7344    1.3910   20.0960 C   0  0  0  0  0  0  0  0  0  0  0  0
    6.9564    0.6059   17.7723 N   0  0  0  0  0  0  0  0  0  0  0  0
    5.2320    1.8051   18.8657 C   0  0  0  0  0  0  0  0  0  0  0  0
    5.8706    1.3914   17.7008 C   0  0  0  0  0  0  0  0  0  0  0  0
    5.3792    1.7948   16.5339 F   0  0  0  0  0  0  0  0  0  0  0  0
    4.8518   -4.9786   29.1974 H   0  0  0  0  0  0  0  0  0  0  0  0
    5.6448   -4.5440   24.5041 H   0  0  0  0  0  0  0  0  0  0  0  0
    7.3033   -2.4132   25.6363 H   0  0  0  0  0  0  0  0  0  0  0  0
    8.6610   -2.5749   28.9722 H   0  0  0  0  0  0  0  0  0  0  0  0
    7.4984   -1.8563   28.0786 H   0  0  0  0  0  0  0  0  0  0  0  0
    9.3512   -2.5792   26.7045 H   0  0  0  0  0  0  0  0  0  0  0  0
    9.0472   -4.1183   27.1578 H   0  0  0  0  0  0  0  0  0  0  0  0
    7.5871   -3.9166   23.9006 H   0  0  0  0  0  0  0  0  0  0  0  0
    8.3618   -4.9730   24.8755 H   0  0  0  0  0  0  0  0  0  0  0  0
    7.9794   -1.1196   24.3967 H   0  0  0  0  0  0  0  0  0  0  0  0
    7.7933   -1.4840   22.8158 H   0  0  0  0  0  0  0  0  0  0  0  0
   10.5655   -1.8821   21.8420 H   0  0  0  0  0  0  0  0  0  0  0  0
   11.5476   -2.0561   23.1351 H   0  0  0  0  0  0  0  0  0  0  0  0
    8.9149    0.8078   23.8348 H   0  0  0  0  0  0  0  0  0  0  0  0
   11.0269    0.3279   22.3475 H   0  0  0  0  0  0  0  0  0  0  0  0
   11.0250    0.0363   23.9543 H   0  0  0  0  0  0  0  0  0  0  0  0
    6.8214   -0.4505   21.9702 H   0  0  0  0  0  0  0  0  0  0  0  0
    8.2635   -0.3890   18.9652 H   0  0  0  0  0  0  0  0  0  0  0  0
    5.2862    1.6805   20.9419 H   0  0  0  0  0  0  0  0  0  0  0  0
    4.4234    2.3917   18.8197 H   0  0  0  0  0  0  0  0  0  0  0  0
  1  2  1  0  0  0  0
  2  3  2  0  0  0  0
  2  4  1  0  0  0  0
  3  5  1  0  0  0  0
  3  6  1  0  0  0  0
  4  7  2  0  0  0  0
  6  8  2  0  0  0  0
  7  9  1  0  0  0  0
  8 10  1  0  0  0  0
  9 11  1  0  0  0  0
 10 12  1  0  0  0  0
 10 13  1  0  0  0  0
 13 14  1  0  0  0  0
 14 15  2  0  0  0  0
 14 16  1  0  0  0  0
 16 17  1  0  0  0  0
 16 18  1  0  0  0  0
 17 19  1  0  0  0  0
 18 20  1  0  0  0  0
 19 21  1  0  0  0  0
 21 22  2  0  0  0  0
 21 23  1  0  0  0  0
 23 24  1  0  0  0  0
 24 25  2  0  0  0  0
 24 26  1  0  0  0  0
 25 27  1  0  0  0  0
 26 28  2  0  0  0  0
 27 29  2  0  0  0  0
 29 30  1  0  0  0  0
  7  8  1  0  0  0  0
 11 12  1  0  0  0  0
 19 20  1  0  0  0  0
 28 29  1  0  0  0  0
  4 31  1  0  0  0  0
  6 32  1  0  0  0  0
 10 33  1  0  0  0  0
 11 34  1  0  0  0  0
 11 35  1  0  0  0  0
 12 36  1  0  0  0  0
 12 37  1  0  0  0  0
 13 38  1  0  0  0  0
 13 39  1  0  0  0  0
 17 40  1  0  0  0  0
 17 41  1  0  0  0  0
 18 42  1  0  0  0  0
 18 43  1  0  0  0  0
 19 44  1  0  0  0  0
 20 45  1  0  0  0  0
 20 46  1  0  0  0  0
 23 47  1  0  0  0  0
 25 48  1  0  0  0  0
 26 49  1  0  0  0  0
 28 50  1  0  0  0  0
M  END
> <BIOSOLVEIT.HYDE_ESTIMATED_AFFINITY_LOWER_BOUNDARY [nM]>
812077.714161

> <BIOSOLVEIT.HYDE_ESTIMATED_AFFINITY_UPPER_BOUNDARY [nM]>
80684722.285290

> <BIOSOLVEIT.HYDE_LIGAND_EFFICIENCY range: ++, +, 0, -, -->
--

> <BIOSOLVEIT.HYDE_LIGAND_LIPOPHILIC_EFFICIENCY range: ++, +, 0, -, -->
--

> <BIOSOLVEIT.INTER_CLASH range: red, yellow, green>
yellow

> <BIOSOLVEIT.INTRA_CLASH range: red, yellow, green>
green

> <BIOSOLVEIT.LOGP>
4.2709

> <BIOSOLVEIT.MOLECULAR WEIGHT>
452.311

> <BIOSOLVEIT.MOLECULE_CHECKSUM>
LTExLjk0OzAuMzk4MDAy

> <BIOSOLVEIT.TORSION_QUALITY range: red, yellow, green, not rotatable>
yellow

> <BIOSOLVEIT.TPSA>
71.53

> <BIOSOLVEIT.SEESAR_FAVORITE>
favorite

> <smc_score>
0.75

> <QED_score>
0.704

> <distance>
0.615

> <SimilarityPheSA_1>
0.645

> <Smiles>
O=C(Nc1ccc(F)nc1)C1CCN(C(=O)CC2CCOc3cc(Cl)c(Cl)cc32)C1

> <Similarity_SkelSpheres>
0.696

> <Cluster No>
374.0

> <QueryID>
MAR-UCB-f313ec4d-2

> <SimilarityPheSA>
0.6447

> <Postera series>
None

> <PDB_code>
Mpro-x11813

> <Approach>
DGM_focussed_RL

> <ID>
20210618_671

> <SimilarityPheSA_2>
0.633

> <OPTIBRIUM.logD>
3.09117

> <OPTIBRIUM.BBB category>
-

> <OPTIBRIUM.logP>
3.09117

> <OPTIBRIUM.P-gp category>
yes

> <OPTIBRIUM.logS>
1.04293

> <OPTIBRIUM.HIA category>
+

> <OPTIBRIUM.PPB90 category>
high

> <OPTIBRIUM.2D6 affinity category>
high

> <OPTIBRIUM.hERG pIC50>
5.23017

> <OPTIBRIUM.2C9 pKi>
5.85779

> <OPTIBRIUM.BBB log([brain]:[blood])>
-0.639822

> <OPTIBRIUM.logS @ pH7.4>
1.04293

$$$$
Compound 492_1_3
haSeeSAR  07122111353D 1   1.00000     0.00000     0
SeeSAR 11.0.2 hazemaj
 51 54  0  0  0  0            999 V2000
    7.8079   -7.4810   23.6175 Cl  0  0  0  0  0  0  0  0  0  0  0  0
    7.4456   -5.7810   24.0012 C   0  0  0  0  0  0  0  0  0  0  0  0
    6.7261   -5.4674   25.1502 C   0  0  0  0  0  0  0  0  0  0  0  0
    7.8833   -4.7722   23.1489 C   0  0  0  0  0  0  0  0  0  0  0  0
    6.1725   -6.7703   26.2292 Cl  0  0  0  0  0  0  0  0  0  0  0  0
    6.4366   -4.1421   25.4583 C   0  0  0  0  0  0  0  0  0  0  0  0
    7.5930   -3.4479   23.4611 C   0  0  0  0  0  0  0  0  0  0  0  0
    6.8727   -3.1304   24.6085 C   0  0  0  0  0  0  0  0  0  0  0  0
    8.0607   -2.4139   22.5575 C   0  0  0  0  0  0  0  0  0  0  0  0
    6.5446   -1.6892   24.9653 C   0  0  0  0  0  0  0  0  0  0  0  0
    7.5532   -2.2955   21.4423 O   0  0  0  0  0  0  0  0  0  0  0  0
    9.0901   -1.5499   22.9543 N   0  0  0  0  0  0  0  0  0  0  0  0
    9.1042   -0.0935   22.7801 C   0  0  2  0  0  0  0  0  0  0  0  0
   10.3362   -1.9602   23.6054 C   0  0  0  0  0  0  0  0  0  0  0  0
    8.4436    0.3327   21.4789 C   0  0  0  0  0  0  0  0  0  0  0  0
   10.5616    0.3222   22.8599 C   0  0  0  0  0  0  0  0  0  0  0  0
    8.3860    0.5727   23.9432 C   0  0  0  0  0  0  0  0  0  0  0  0
   11.3497   -0.9509   23.1064 C   0  0  0  0  0  0  0  0  0  0  0  0
    9.1053    0.8996   20.6095 O   0  0  0  0  0  0  0  0  0  0  0  0
    7.1573    0.0941   21.2811 N   0  0  0  0  0  0  0  0  0  0  0  0
    6.5483    0.4869   20.0817 C   0  0  0  0  0  0  0  0  0  0  0  0
    5.3850    1.2532   20.0458 C   0  0  0  0  0  0  0  0  0  0  0  0
    7.1343    0.0929   18.8835 C   0  0  0  0  0  0  0  0  0  0  0  0
    4.8431    1.6011   18.8123 C   0  0  0  0  0  0  0  0  0  0  0  0
    4.7445    1.6827   21.2050 C   0  0  0  0  0  0  0  0  0  0  0  0
    6.5889    0.4430   17.7087 N   0  0  0  0  0  0  0  0  0  0  0  0
    5.4694    1.1802   17.6428 C   0  0  0  0  0  0  0  0  0  0  0  0
    3.6821    2.3655   18.7469 C   0  0  0  0  0  0  0  0  0  0  0  0
    3.5836    2.4467   21.1604 C   0  0  0  0  0  0  0  0  0  0  0  0
    3.0589    2.7841   19.9175 C   0  0  0  0  0  0  0  0  0  0  0  0
    8.4001   -4.9962   22.3226 H   0  0  0  0  0  0  0  0  0  0  0  0
    5.9190   -3.9182   26.2842 H   0  0  0  0  0  0  0  0  0  0  0  0
    6.9199   -1.0793   24.2673 H   0  0  0  0  0  0  0  0  0  0  0  0
    5.5522   -1.5745   25.0096 H   0  0  0  0  0  0  0  0  0  0  0  0
    6.9460   -1.4662   25.8537 H   0  0  0  0  0  0  0  0  0  0  0  0
   10.5924   -2.8877   23.3331 H   0  0  0  0  0  0  0  0  0  0  0  0
   10.2498   -1.9168   24.6007 H   0  0  0  0  0  0  0  0  0  0  0  0
   10.6980    0.9661   23.6128 H   0  0  0  0  0  0  0  0  0  0  0  0
   10.8487    0.7475   22.0016 H   0  0  0  0  0  0  0  0  0  0  0  0
    8.3989    1.5649   23.8187 H   0  0  0  0  0  0  0  0  0  0  0  0
    7.4389    0.2534   23.9770 H   0  0  0  0  0  0  0  0  0  0  0  0
    8.8476    0.3381   24.7986 H   0  0  0  0  0  0  0  0  0  0  0  0
   11.7732   -1.2700   22.2586 H   0  0  0  0  0  0  0  0  0  0  0  0
   12.0580   -0.7964   23.7952 H   0  0  0  0  0  0  0  0  0  0  0  0
    6.6198   -0.3664   21.9874 H   0  0  0  0  0  0  0  0  0  0  0  0
    7.9699   -0.4563   18.8976 H   0  0  0  0  0  0  0  0  0  0  0  0
    5.1299    1.4351   22.0939 H   0  0  0  0  0  0  0  0  0  0  0  0
    5.0852    1.4272   16.7532 H   0  0  0  0  0  0  0  0  0  0  0  0
    3.2960    2.6137   17.8584 H   0  0  0  0  0  0  0  0  0  0  0  0
    3.1360    2.7466   22.0028 H   0  0  0  0  0  0  0  0  0  0  0  0
    2.2249    3.3334   19.8650 H   0  0  0  0  0  0  0  0  0  0  0  0
  1  2  1  0  0  0  0
  2  3  2  0  0  0  0
  2  4  1  0  0  0  0
  3  5  1  0  0  0  0
  3  6  1  0  0  0  0
  4  7  2  0  0  0  0
  6  8  2  0  0  0  0
  7  9  1  0  0  0  0
  8 10  1  0  0  0  0
  9 11  2  0  0  0  0
  9 12  1  0  0  0  0
 12 13  1  0  0  0  0
 12 14  1  0  0  0  0
 13 15  1  0  0  0  0
 13 16  1  0  0  0  0
 13 17  1  0  0  0  0
 14 18  1  0  0  0  0
 15 19  2  0  0  0  0
 15 20  1  0  0  0  0
 20 21  1  0  0  0  0
 21 22  1  0  0  0  0
 21 23  2  0  0  0  0
 22 24  1  0  0  0  0
 22 25  2  0  0  0  0
 23 26  1  0  0  0  0
 24 27  1  0  0  0  0
 24 28  2  0  0  0  0
 25 29  1  0  0  0  0
 28 30  1  0  0  0  0
  7  8  1  0  0  0  0
 16 18  1  0  0  0  0
 26 27  2  0  0  0  0
 29 30  2  0  0  0  0
  4 31  1  0  0  0  0
  6 32  1  0  0  0  0
 10 33  1  0  0  0  0
 10 34  1  0  0  0  0
 10 35  1  0  0  0  0
 14 36  1  0  0  0  0
 14 37  1  0  0  0  0
 16 38  1  0  0  0  0
 16 39  1  0  0  0  0
 17 40  1  0  0  0  0
 17 41  1  0  0  0  0
 17 42  1  0  0  0  0
 18 43  1  0  0  0  0
 18 44  1  0  0  0  0
 20 45  1  0  0  0  0
 23 46  1  0  0  0  0
 25 47  1  0  0  0  0
 27 48  1  0  0  0  0
 28 49  1  0  0  0  0
 29 50  1  0  0  0  0
 30 51  1  0  0  0  0
M  END
> <BIOSOLVEIT.HYDE_ESTIMATED_AFFINITY_LOWER_BOUNDARY [nM]>
814202.355577

> <BIOSOLVEIT.HYDE_ESTIMATED_AFFINITY_UPPER_BOUNDARY [nM]>
80895817.971865

> <BIOSOLVEIT.HYDE_LIGAND_EFFICIENCY range: ++, +, 0, -, -->
--

> <BIOSOLVEIT.HYDE_LIGAND_LIPOPHILIC_EFFICIENCY range: ++, +, 0, -, -->
--

> <BIOSOLVEIT.INTER_CLASH range: red, yellow, green>
green

> <BIOSOLVEIT.INTRA_CLASH range: red, yellow, green>
yellow

> <BIOSOLVEIT.LOGP>
5.48342

> <BIOSOLVEIT.MOLECULAR WEIGHT>
442.344

> <BIOSOLVEIT.MOLECULE_CHECKSUM>
LTExLjkzMzY7MC4zOTc3ODY=

> <BIOSOLVEIT.TORSION_QUALITY range: red, yellow, green, not rotatable>
yellow

> <BIOSOLVEIT.TPSA>
62.3

> <BIOSOLVEIT.SEESAR_FAVORITE>
favorite

> <smc_score>
0.875

> <QED_score>
0.584

> <distance>
0.508

> <SimilarityPheSA_1>
0.658

> <Smiles>
Cc1cc(Cl)c(Cl)cc1C(=O)N1CCCC1(C)C(=O)Nc1cncc2ccccc12

> <Similarity_SkelSpheres>
0.817

> <Cluster No>
260.0

> <QueryID>
JAN-GHE-5a013bed-2

> <SimilarityPheSA>
0.6584

> <Postera series>
3-aminopyridine-like

> <PDB_code>
Mpro-x10466

> <Approach>
DGM_focussed_RL

> <ID>
20210618_491

> <SimilarityPheSA_2>
0.77

> <OPTIBRIUM.logD>
4.3692

> <OPTIBRIUM.BBB category>
-

> <OPTIBRIUM.logP>
4.3692

> <OPTIBRIUM.P-gp category>
no

> <OPTIBRIUM.logS>
0.140491

> <OPTIBRIUM.HIA category>
+

> <OPTIBRIUM.PPB90 category>
high

> <OPTIBRIUM.2D6 affinity category>
high

> <OPTIBRIUM.hERG pIC50>
5.2128

> <OPTIBRIUM.2C9 pKi>
6.05427

> <OPTIBRIUM.BBB log([brain]:[blood])>
-0.371973

> <OPTIBRIUM.logS @ pH7.4>
0.140491

$$$$
Compound 115_1_005
haSeeSAR  07122111353D 1   1.00000     0.00000     0
SeeSAR 11.0.2 hazemaj
 54 57  0  0  0  0            999 V2000
    6.5818   -2.3312   25.5488 Cl  0  0  0  0  0  0  0  0  0  0  0  0
    8.1922   -2.2548   24.7942 C   0  0  0  0  0  0  0  0  0  0  0  0
    9.0975   -3.2975   24.9620 C   0  0  0  0  0  0  0  0  0  0  0  0
    8.5515   -1.1476   24.0319 C   0  0  0  0  0  0  0  0  0  0  0  0
    8.6300   -4.7098   25.9395 Cl  0  0  0  0  0  0  0  0  0  0  0  0
   10.3580   -3.2458   24.3758 C   0  0  0  0  0  0  0  0  0  0  0  0
    9.8102   -1.0886   23.4418 C   0  0  0  0  0  0  0  0  0  0  0  0
    7.5692   -0.0031   23.8428 C   0  0  0  0  0  0  0  0  0  0  0  0
   10.7087   -2.1359   23.6143 C   0  0  0  0  0  0  0  0  0  0  0  0
    8.1511    0.9976   22.9369 N   0  0  0  0  0  0  0  0  0  0  0  0
    8.2608    0.7357   21.6447 C   0  0  0  0  0  0  0  0  0  0  0  0
    8.6115    2.2892   23.4667 C   0  0  0  0  0  0  0  0  0  0  0  0
    9.0730    1.3553   20.9578 O   0  0  0  0  0  0  0  0  0  0  0  0
    7.3836   -0.3301   21.0081 C   0  0  0  0  0  0  0  0  0  0  0  0
    7.4435    3.2606   23.5191 C   0  0  1  0  0  0  0  0  0  0  0  0
    6.6203    0.2734   19.8386 C   0  0  0  0  0  0  0  0  0  0  0  0
    7.8135    4.3076   24.5584 C   0  0  0  0  0  0  0  0  0  0  0  0
    7.2506    3.7505   22.0823 C   0  0  0  0  0  0  0  0  0  0  0  0
    5.4430    1.0034   19.9978 C   0  0  0  0  0  0  0  0  0  0  0  0
    7.1284    0.0823   18.5574 C   0  0  0  0  0  0  0  0  0  0  0  0
    8.5701    5.4832   23.9583 C   0  0  0  0  0  0  0  0  0  0  0  0
    7.1604    5.2645   21.9362 C   0  0  0  0  0  0  0  0  0  0  0  0
    4.8026    1.5232   18.8773 C   0  0  0  0  0  0  0  0  0  0  0  0
    4.8753    1.2347   21.2491 C   0  0  0  0  0  0  0  0  0  0  0  0
    6.4945    0.5931   17.4914 N   0  0  0  0  0  0  0  0  0  0  0  0
    9.4696    6.0013   24.6025 O   0  0  0  0  0  0  0  0  0  0  0  0
    8.2329    5.9421   22.6779 N   0  0  0  0  0  0  0  0  0  0  0  0
    5.3608    1.2979   17.6230 C   0  0  0  0  0  0  0  0  0  0  0  0
    3.6273    2.2554   19.0076 C   0  0  0  0  0  0  0  0  0  0  0  0
    3.7009    1.9636   21.4026 C   0  0  0  0  0  0  0  0  0  0  0  0
    3.0797    2.4738   20.2673 C   0  0  0  0  0  0  0  0  0  0  0  0
   11.0048   -3.9983   24.5005 H   0  0  0  0  0  0  0  0  0  0  0  0
   10.0686   -0.2933   22.8936 H   0  0  0  0  0  0  0  0  0  0  0  0
    7.3766    0.4206   24.7279 H   0  0  0  0  0  0  0  0  0  0  0  0
    6.7195   -0.3545   23.4496 H   0  0  0  0  0  0  0  0  0  0  0  0
   11.6123   -2.0908   23.1884 H   0  0  0  0  0  0  0  0  0  0  0  0
    9.3255    2.6583   22.8716 H   0  0  0  0  0  0  0  0  0  0  0  0
    8.9791    2.1600   24.3876 H   0  0  0  0  0  0  0  0  0  0  0  0
    6.7354   -0.6767   21.6861 H   0  0  0  0  0  0  0  0  0  0  0  0
    7.9566   -1.0811   20.6803 H   0  0  0  0  0  0  0  0  0  0  0  0
    6.6217    2.7747   23.8166 H   0  0  0  0  0  0  0  0  0  0  0  0
    8.3883    3.8785   25.2552 H   0  0  0  0  0  0  0  0  0  0  0  0
    6.9746    4.6491   24.9822 H   0  0  0  0  0  0  0  0  0  0  0  0
    6.4050    3.3517   21.7275 H   0  0  0  0  0  0  0  0  0  0  0  0
    8.0249    3.4299   21.5367 H   0  0  0  0  0  0  0  0  0  0  0  0
    7.9721   -0.4394   18.4305 H   0  0  0  0  0  0  0  0  0  0  0  0
    6.2768    5.5729   22.2885 H   0  0  0  0  0  0  0  0  0  0  0  0
    7.2346    5.5025   20.9677 H   0  0  0  0  0  0  0  0  0  0  0  0
    5.3261    0.8652   22.0617 H   0  0  0  0  0  0  0  0  0  0  0  0
    8.7153    6.7198   22.2746 H   0  0  0  0  0  0  0  0  0  0  0  0
    4.9112    1.6661   16.8092 H   0  0  0  0  0  0  0  0  0  0  0  0
    3.1760    2.6250   18.1953 H   0  0  0  0  0  0  0  0  0  0  0  0
    3.3110    2.1178   22.3104 H   0  0  0  0  0  0  0  0  0  0  0  0
    2.2344    3.0006   20.3573 H   0  0  0  0  0  0  0  0  0  0  0  0
  1  2  1  0  0  0  0
  2  3  2  0  0  0  0
  2  4  1  0  0  0  0
  3  5  1  0  0  0  0
  3  6  1  0  0  0  0
  4  7  2  0  0  0  0
  4  8  1  0  0  0  0
  6  9  2  0  0  0  0
  8 10  1  0  0  0  0
 10 11  1  0  0  0  0
 10 12  1  0  0  0  0
 11 13  2  0  0  0  0
 11 14  1  0  0  0  0
 12 15  1  0  0  0  0
 14 16  1  0  0  0  0
 15 17  1  0  0  0  0
 15 18  1  0  0  0  0
 16 19  1  0  0  0  0
 16 20  2  0  0  0  0
 17 21  1  0  0  0  0
 18 22  1  0  0  0  0
 19 23  1  0  0  0  0
 19 24  2  0  0  0  0
 20 25  1  0  0  0  0
 21 26  2  0  0  0  0
 21 27  1  0  0  0  0
 23 28  1  0  0  0  0
 23 29  2  0  0  0  0
 24 30  1  0  0  0  0
 29 31  1  0  0  0  0
  7  9  1  0  0  0  0
 22 27  1  0  0  0  0
 25 28  2  0  0  0  0
 30 31  2  0  0  0  0
  6 32  1  0  0  0  0
  7 33  1  0  0  0  0
  8 34  1  0  0  0  0
  8 35  1  0  0  0  0
  9 36  1  0  0  0  0
 12 37  1  0  0  0  0
 12 38  1  0  0  0  0
 14 39  1  0  0  0  0
 14 40  1  0  0  0  0
 15 41  1  0  0  0  0
 17 42  1  0  0  0  0
 17 43  1  0  0  0  0
 18 44  1  0  0  0  0
 18 45  1  0  0  0  0
 20 46  1  0  0  0  0
 22 47  1  0  0  0  0
 22 48  1  0  0  0  0
 24 49  1  0  0  0  0
 27 50  1  0  0  0  0
 28 51  1  0  0  0  0
 29 52  1  0  0  0  0
 30 53  1  0  0  0  0
 31 54  1  0  0  0  0
M  END
> <BIOSOLVEIT.HYDE_ESTIMATED_AFFINITY_LOWER_BOUNDARY [nM]>
879962.605283

> <BIOSOLVEIT.HYDE_ESTIMATED_AFFINITY_UPPER_BOUNDARY [nM]>
87429487.585569

> <BIOSOLVEIT.HYDE_LIGAND_EFFICIENCY range: ++, +, 0, -, -->
--

> <BIOSOLVEIT.HYDE_LIGAND_LIPOPHILIC_EFFICIENCY range: ++, +, 0, -, -->
--

> <BIOSOLVEIT.INTER_CLASH range: red, yellow, green>
green

> <BIOSOLVEIT.INTRA_CLASH range: red, yellow, green>
yellow

> <BIOSOLVEIT.LOGP>
4.6391

> <BIOSOLVEIT.MOLECULAR WEIGHT>
456.371

> <BIOSOLVEIT.MOLECULE_CHECKSUM>
LTExLjc0MTswLjM3ODc0Mw==

> <BIOSOLVEIT.TORSION_QUALITY range: red, yellow, green, not rotatable>
green

> <BIOSOLVEIT.TPSA>
62.3

> <BIOSOLVEIT.SEESAR_FAVORITE>
favorite

> <smc_score>
0.563

> <QED_score>
0.588

> <distance>
0.577

> <SimilarityPheSA_1>
0.637

> <Smiles>
O=C1CC(CN(Cc2cccc(Cl)c2Cl)C(=O)Cc2cncc3ccccc23)CCN1

> <Similarity_SkelSpheres>
0.752

> <Cluster No>
53.0

> <QueryID>
ALP-POS-c59291d4-4

> <SimilarityPheSA>
0.6367

> <Postera series>
3-aminopyridine-like

> <PDB_code>
Mpro-x10820

> <Approach>
DGM_focussed_RL

> <ID>
20210618_114

> <SimilarityPheSA_2>
0.708

> <OPTIBRIUM.logD>
3.63568

> <OPTIBRIUM.BBB category>
-

> <OPTIBRIUM.logP>
3.63568

> <OPTIBRIUM.P-gp category>
yes

> <OPTIBRIUM.logS>
0.933199

> <OPTIBRIUM.HIA category>
+

> <OPTIBRIUM.PPB90 category>
high

> <OPTIBRIUM.2D6 affinity category>
high

> <OPTIBRIUM.hERG pIC50>
5.21475

> <OPTIBRIUM.2C9 pKi>
5.6623

> <OPTIBRIUM.BBB log([brain]:[blood])>
-0.305748

> <OPTIBRIUM.logS @ pH7.4>
0.933199

$$$$
Compound 512_1_01
haSeeSAR  07122111353D 1   1.00000     0.00000     0
SeeSAR 11.0.2 hazemaj
 44 47  0  0  0  0            999 V2000
    8.5010    1.2347   26.2133 Cl  0  0  0  0  0  0  0  0  0  0  0  0
    8.2946   -0.5306   26.1166 C   0  0  0  0  0  0  0  0  0  0  0  0
    7.8912   -1.1138   24.9202 C   0  0  0  0  0  0  0  0  0  0  0  0
    8.5403   -1.3071   27.2436 C   0  0  0  0  0  0  0  0  0  0  0  0
    7.6578   -0.3415   23.8376 O   0  0  0  0  0  0  0  0  0  0  0  0
    7.7337   -2.4950   24.8583 C   0  0  0  0  0  0  0  0  0  0  0  0
    8.3760   -2.6852   27.1546 C   0  0  0  0  0  0  0  0  0  0  0  0
    8.7109   -0.0558   22.9290 C   0  0  0  0  0  0  0  0  0  0  0  0
    7.3275   -3.0790   23.6529 N   0  0  0  0  0  0  0  0  0  0  0  0
    7.9735   -3.2941   25.9707 C   0  0  0  0  0  0  0  0  0  0  0  0
    8.6844   -3.6996   28.5839 Cl  0  0  0  0  0  0  0  0  0  0  0  0
    8.1274    0.4510   21.6201 C   0  0  0  0  0  0  0  0  0  0  0  0
    6.6706   -2.4668   22.6983 N   0  0  0  0  0  0  0  0  0  0  0  0
    7.5505   -4.3671   23.2836 C   0  0  0  0  0  0  0  0  0  0  0  0
    8.7420    1.2838   20.9538 O   0  0  0  0  0  0  0  0  0  0  0  0
    6.9588   -0.0028   21.1972 N   0  0  0  0  0  0  0  0  0  0  0  0
    6.4387   -3.2814   21.6953 C   0  0  0  0  0  0  0  0  0  0  0  0
    7.0021   -4.5285   22.0477 C   0  0  0  0  0  0  0  0  0  0  0  0
    8.2821   -5.4297   24.0883 C   0  0  0  0  0  0  0  0  0  0  0  0
    6.4211    0.4642   19.9913 C   0  0  0  0  0  0  0  0  0  0  0  0
    5.2647    1.2391   19.9341 C   0  0  0  0  0  0  0  0  0  0  0  0
    7.0738    0.1368   18.8073 C   0  0  0  0  0  0  0  0  0  0  0  0
    4.7837    1.6709   18.7035 C   0  0  0  0  0  0  0  0  0  0  0  0
    4.5550    1.6079   21.0733 C   0  0  0  0  0  0  0  0  0  0  0  0
    6.5934    0.5632   17.6296 N   0  0  0  0  0  0  0  0  0  0  0  0
    5.4818    1.3095   17.5555 C   0  0  0  0  0  0  0  0  0  0  0  0
    3.6284    2.4446   18.6576 C   0  0  0  0  0  0  0  0  0  0  0  0
    3.4027    2.3827   20.9885 C   0  0  0  0  0  0  0  0  0  0  0  0
    2.9741    2.7784   19.7801 N   0  0  0  0  0  0  0  0  0  0  0  0
    8.8298   -0.8827   28.1016 H   0  0  0  0  0  0  0  0  0  0  0  0
    9.2389   -0.8877   22.7585 H   0  0  0  0  0  0  0  0  0  0  0  0
    9.3085    0.6438   23.3206 H   0  0  0  0  0  0  0  0  0  0  0  0
    7.8588   -4.2862   25.9206 H   0  0  0  0  0  0  0  0  0  0  0  0
    6.4595   -0.6792   21.7385 H   0  0  0  0  0  0  0  0  0  0  0  0
    5.9570   -3.0621   20.8470 H   0  0  0  0  0  0  0  0  0  0  0  0
    6.9988   -5.3641   21.4982 H   0  0  0  0  0  0  0  0  0  0  0  0
    8.2972   -6.2865   23.5729 H   0  0  0  0  0  0  0  0  0  0  0  0
    9.2198   -5.1291   24.2627 H   0  0  0  0  0  0  0  0  0  0  0  0
    7.8106   -5.5725   24.9585 H   0  0  0  0  0  0  0  0  0  0  0  0
    7.9047   -0.4190   18.8342 H   0  0  0  0  0  0  0  0  0  0  0  0
    4.8801    1.3100   21.9708 H   0  0  0  0  0  0  0  0  0  0  0  0
    5.1495    1.6110   16.6618 H   0  0  0  0  0  0  0  0  0  0  0  0
    3.2802    2.7568   17.7738 H   0  0  0  0  0  0  0  0  0  0  0  0
    2.9019    2.6406   21.8147 H   0  0  0  0  0  0  0  0  0  0  0  0
  1  2  1  0  0  0  0
  2  3  2  0  0  0  0
  2  4  1  0  0  0  0
  3  5  1  0  0  0  0
  3  6  1  0  0  0  0
  4  7  2  0  0  0  0
  5  8  1  0  0  0  0
  6  9  1  0  0  0  0
  6 10  2  0  0  0  0
  7 11  1  0  0  0  0
  8 12  1  0  0  0  0
  9 13  1  0  0  0  0
  9 14  1  0  0  0  0
 12 15  2  0  0  0  0
 12 16  1  0  0  0  0
 13 17  2  0  0  0  0
 14 18  2  0  0  0  0
 14 19  1  0  0  0  0
 16 20  1  0  0  0  0
 20 21  1  0  0  0  0
 20 22  2  0  0  0  0
 21 23  1  0  0  0  0
 21 24  2  0  0  0  0
 22 25  1  0  0  0  0
 23 26  1  0  0  0  0
 23 27  2  0  0  0  0
 24 28  1  0  0  0  0
 27 29  1  0  0  0  0
  7 10  1  0  0  0  0
 17 18  1  0  0  0  0
 25 26  2  0  0  0  0
 28 29  2  0  0  0  0
  4 30  1  0  0  0  0
  8 31  1  0  0  0  0
  8 32  1  0  0  0  0
 10 33  1  0  0  0  0
 16 34  1  0  0  0  0
 17 35  1  0  0  0  0
 18 36  1  0  0  0  0
 19 37  1  0  0  0  0
 19 38  1  0  0  0  0
 19 39  1  0  0  0  0
 22 40  1  0  0  0  0
 24 41  1  0  0  0  0
 26 42  1  0  0  0  0
 27 43  1  0  0  0  0
 28 44  1  0  0  0  0
M  END
> <BIOSOLVEIT.HYDE_ESTIMATED_AFFINITY_LOWER_BOUNDARY [nM]>
926950.300237

> <BIOSOLVEIT.HYDE_ESTIMATED_AFFINITY_UPPER_BOUNDARY [nM]>
92097992.892422

> <BIOSOLVEIT.HYDE_LIGAND_EFFICIENCY range: ++, +, 0, -, -->
--

> <BIOSOLVEIT.HYDE_LIGAND_LIPOPHILIC_EFFICIENCY range: ++, +, 0, -, -->
--

> <BIOSOLVEIT.INTER_CLASH range: red, yellow, green>
green

> <BIOSOLVEIT.INTRA_CLASH range: red, yellow, green>
red

> <BIOSOLVEIT.LOGP>
4.44822

> <BIOSOLVEIT.MOLECULAR WEIGHT>
428.278

> <BIOSOLVEIT.MOLECULE_CHECKSUM>
LTExLjYxMjE7MC40MDA0MTY=

> <BIOSOLVEIT.TORSION_QUALITY range: red, yellow, green, not rotatable>
red

> <BIOSOLVEIT.TPSA>
81.93

> <BIOSOLVEIT.SEESAR_FAVORITE>
favorite

> <smc_score>
0.563

> <QED_score>
0.508

> <distance>
0.508

> <SimilarityPheSA_1>
0.639

> <Smiles>
Cc1ccnn1-c1cc(Cl)cc(Cl)c1OCC(=O)Nc1cncc2cnccc12

> <Similarity_SkelSpheres>
0.764

> <Cluster No>
273.0

> <QueryID>
MAT-POS-8a69d52e-7

> <SimilarityPheSA>
0.6385

> <Postera series>
3-aminopyridine-like

> <PDB_code>
Mpro-x12073

> <Approach>
DGM_focussed_RL

> <ID>
20210618_511

> <SimilarityPheSA_2>
0.785

> <OPTIBRIUM.logD>
3.5416

> <OPTIBRIUM.BBB category>
-

> <OPTIBRIUM.logP>
3.5416

> <OPTIBRIUM.P-gp category>
no

> <OPTIBRIUM.logS>
-0.166

> <OPTIBRIUM.HIA category>
+

> <OPTIBRIUM.PPB90 category>
high

> <OPTIBRIUM.2D6 affinity category>
medium

> <OPTIBRIUM.hERG pIC50>
4.74146

> <OPTIBRIUM.2C9 pKi>
6.00048

> <OPTIBRIUM.BBB log([brain]:[blood])>
-0.533243

> <OPTIBRIUM.logS @ pH7.4>
-0.166

$$$$
Compound 589_1_09
haSeeSAR  07122111353D 1   1.00000     0.00000     0
SeeSAR 11.0.2 hazemaj
 40 42  0  0  0  0            999 V2000
   12.6135    2.2986   23.6954 Cl  0  0  0  0  0  0  0  0  0  0  0  0
   11.5185    1.0150   23.1281 C   0  0  0  0  0  0  0  0  0  0  0  0
   10.1463    1.2449   23.1081 C   0  0  0  0  0  0  0  0  0  0  0  0
   12.0449   -0.2026   22.7099 C   0  0  0  0  0  0  0  0  0  0  0  0
    9.6469    2.4312   23.5173 O   0  0  0  0  0  0  0  0  0  0  0  0
    9.2874    0.2441   22.6652 C   0  0  0  0  0  0  0  0  0  0  0  0
   11.1825   -1.2003   22.2679 C   0  0  0  0  0  0  0  0  0  0  0  0
    9.1390    3.3542   22.5651 C   0  0  0  0  0  0  0  0  0  0  0  0
    9.8101   -0.9748   22.2466 C   0  0  0  0  0  0  0  0  0  0  0  0
    7.7866    0.4857   22.6417 C   0  0  0  0  0  0  0  0  0  0  0  0
    7.8052    3.9051   23.0533 C   0  0  1  0  0  0  0  0  0  0  0  0
    8.7274   -2.2675   21.6769 Cl  0  0  0  0  0  0  0  0  0  0  0  0
    7.3773    0.9980   21.2704 C   0  0  0  0  0  0  0  0  0  0  0  0
    7.7593    5.2570   23.4829 O   0  0  0  0  0  0  0  0  0  0  0  0
    6.9320    4.3487   21.9050 C   0  0  0  0  0  0  0  0  0  0  0  0
    8.1735    1.6484   20.5935 O   0  0  0  0  0  0  0  0  0  0  0  0
    6.1652    0.7448   20.8044 N   0  0  0  0  0  0  0  0  0  0  0  0
    7.5409    5.7065   22.1625 C   0  0  0  0  0  0  0  0  0  0  0  0
    5.9566    0.6233   19.4240 C   0  0  0  0  0  0  0  0  0  0  0  0
    4.9418    1.1702   18.6972 N   0  0  0  0  0  0  0  0  0  0  0  0
    6.7267   -0.0652   18.5386 C   0  0  0  0  0  0  0  0  0  0  0  0
    5.0943    0.8228   17.4403 N   0  0  0  0  0  0  0  0  0  0  0  0
    3.8656    2.0043   19.2476 C   0  0  0  0  0  0  0  0  0  0  0  0
    6.1378    0.0971   17.3194 N   0  0  0  0  0  0  0  0  0  0  0  0
   13.0324   -0.3589   22.7268 H   0  0  0  0  0  0  0  0  0  0  0  0
   11.5492   -2.0801   21.9654 H   0  0  0  0  0  0  0  0  0  0  0  0
    9.0076    2.8907   21.6888 H   0  0  0  0  0  0  0  0  0  0  0  0
    9.7884    4.1060   22.4505 H   0  0  0  0  0  0  0  0  0  0  0  0
    7.5473    1.1643   23.3361 H   0  0  0  0  0  0  0  0  0  0  0  0
    7.3080   -0.3710   22.8340 H   0  0  0  0  0  0  0  0  0  0  0  0
    7.3352    3.2834   23.6796 H   0  0  0  0  0  0  0  0  0  0  0  0
    5.9473    4.2837   22.0664 H   0  0  0  0  0  0  0  0  0  0  0  0
    7.1521    3.9423   21.0183 H   0  0  0  0  0  0  0  0  0  0  0  0
    5.3980    0.6402   21.4371 H   0  0  0  0  0  0  0  0  0  0  0  0
    8.3716    5.9013   21.6410 H   0  0  0  0  0  0  0  0  0  0  0  0
    6.9068    6.4751   22.0786 H   0  0  0  0  0  0  0  0  0  0  0  0
    7.5567   -0.5850   18.7410 H   0  0  0  0  0  0  0  0  0  0  0  0
    3.2482    2.2805   18.5112 H   0  0  0  0  0  0  0  0  0  0  0  0
    3.3560    1.4823   19.9317 H   0  0  0  0  0  0  0  0  0  0  0  0
    4.2598    2.8179   19.6750 H   0  0  0  0  0  0  0  0  0  0  0  0
  1  2  1  0  0  0  0
  2  3  2  0  0  0  0
  2  4  1  0  0  0  0
  3  5  1  0  0  0  0
  3  6  1  0  0  0  0
  4  7  2  0  0  0  0
  5  8  1  0  0  0  0
  6  9  2  0  0  0  0
  6 10  1  0  0  0  0
  8 11  1  0  0  0  0
  9 12  1  0  0  0  0
 10 13  1  0  0  0  0
 11 14  1  0  0  0  0
 11 15  1  0  0  0  0
 13 16  2  0  0  0  0
 13 17  1  0  0  0  0
 14 18  1  0  0  0  0
 17 19  1  0  0  0  0
 19 20  1  0  0  0  0
 19 21  2  0  0  0  0
 20 22  1  0  0  0  0
 20 23  1  0  0  0  0
 21 24  1  0  0  0  0
  7  9  1  0  0  0  0
 15 18  1  0  0  0  0
 22 24  2  0  0  0  0
  4 25  1  0  0  0  0
  7 26  1  0  0  0  0
  8 27  1  0  0  0  0
  8 28  1  0  0  0  0
 10 29  1  0  0  0  0
 10 30  1  0  0  0  0
 11 31  1  0  0  0  0
 15 32  1  0  0  0  0
 15 33  1  0  0  0  0
 17 34  1  0  0  0  0
 18 35  1  0  0  0  0
 18 36  1  0  0  0  0
 21 37  1  0  0  0  0
 23 38  1  0  0  0  0
 23 39  1  0  0  0  0
 23 40  1  0  0  0  0
M  END
> <BIOSOLVEIT.HYDE_ESTIMATED_AFFINITY_LOWER_BOUNDARY [nM]>
944358.532002

> <BIOSOLVEIT.HYDE_ESTIMATED_AFFINITY_UPPER_BOUNDARY [nM]>
93827603.643964

> <BIOSOLVEIT.HYDE_LIGAND_EFFICIENCY range: ++, +, 0, -, -->
--

> <BIOSOLVEIT.HYDE_LIGAND_LIPOPHILIC_EFFICIENCY range: ++, +, 0, -, -->
--

> <BIOSOLVEIT.INTER_CLASH range: red, yellow, green>
yellow

> <BIOSOLVEIT.INTRA_CLASH range: red, yellow, green>
yellow

> <BIOSOLVEIT.LOGP>
2.4708

> <BIOSOLVEIT.MOLECULAR WEIGHT>
371.222

> <BIOSOLVEIT.MOLECULE_CHECKSUM>
LTExLjU2NTk7MC40ODE5MTQ=

> <BIOSOLVEIT.TORSION_QUALITY range: red, yellow, green, not rotatable>
red

> <BIOSOLVEIT.TPSA>
78.27

> <BIOSOLVEIT.SEESAR_FAVORITE>
favorite

> <smc_score>
0.625

> <QED_score>
0.844

> <distance>
0.711

> <SimilarityPheSA_1>
0.672

> <Smiles>
Cn1nncc1NC(=O)Cc1c(Cl)ccc(Cl)c1OCC1CCO1

> <Similarity_SkelSpheres>
0.564

> <Cluster No>
317.0

> <QueryID>
JAG-UCB-a3ef7265-20

> <SimilarityPheSA>
0.672

> <Postera series>
3-aminopyridine-like

> <PDB_code>
Mpro-x10324

> <Approach>
DGM_focussed_RL

> <ID>
20210618_588

> <SimilarityPheSA_2>
0.729

> <OPTIBRIUM.logD>
2.74177

> <OPTIBRIUM.BBB category>
-

> <OPTIBRIUM.logP>
2.74177

> <OPTIBRIUM.P-gp category>
no

> <OPTIBRIUM.logS>
2.35026

> <OPTIBRIUM.HIA category>
+

> <OPTIBRIUM.PPB90 category>
high

> <OPTIBRIUM.2D6 affinity category>
high

> <OPTIBRIUM.hERG pIC50>
4.6706

> <OPTIBRIUM.2C9 pKi>
5.06888

> <OPTIBRIUM.BBB log([brain]:[blood])>
-0.185154

> <OPTIBRIUM.logS @ pH7.4>
2.35026

$$$$
Compound 114_1_05
haSeeSAR  07122111353D 1   1.00000     0.00000     0
SeeSAR 11.0.2 hazemaj
 44 47  0  0  0  0            999 V2000
    5.0208    4.3922   26.3808 Cl  0  0  0  0  0  0  0  0  0  0  0  0
    5.5013    2.6968   26.1215 C   0  0  0  0  0  0  0  0  0  0  0  0
    4.8662    1.8032   26.9775 C   0  0  0  0  0  0  0  0  0  0  0  0
    6.4257    2.2707   25.1587 C   0  0  0  0  0  0  0  0  0  0  0  0
    3.6944    2.3803   28.1872 Cl  0  0  0  0  0  0  0  0  0  0  0  0
    5.1616    0.4482   26.8708 C   0  0  0  0  0  0  0  0  0  0  0  0
    6.6707    0.8940   25.0517 C   0  0  0  0  0  0  0  0  0  0  0  0
    7.1706    3.2243   24.2157 C   0  0  2  0  0  0  0  0  0  0  0  0
    6.0616   -0.0010   25.9104 C   0  0  0  0  0  0  0  0  0  0  0  0
    7.5951    0.2710   24.0169 C   0  0  0  0  0  0  0  0  0  0  0  0
    8.4255    2.6495   23.5684 C   0  0  0  0  0  0  0  0  0  0  0  0
    7.6741    4.4944   24.8875 C   0  0  0  0  0  0  0  0  0  0  0  0
    8.1364    1.2877   23.1036 N   0  0  0  0  0  0  0  0  0  0  0  0
    8.4115    0.9920   21.7612 C   0  0  0  0  0  0  0  0  0  0  0  0
    9.2155    1.6794   21.1318 O   0  0  0  0  0  0  0  0  0  0  0  0
    7.7170   -0.1777   21.0828 C   0  0  0  0  0  0  0  0  0  0  0  0
    6.8729    0.3356   19.9256 C   0  0  0  0  0  0  0  0  0  0  0  0
    5.6568    0.9928   20.1079 C   0  0  0  0  0  0  0  0  0  0  0  0
    7.3450    0.1351   18.6323 C   0  0  0  0  0  0  0  0  0  0  0  0
    4.9426    1.4322   18.9976 C   0  0  0  0  0  0  0  0  0  0  0  0
    5.1215    1.2286   21.3727 C   0  0  0  0  0  0  0  0  0  0  0  0
    6.6399    0.5677   17.5764 N   0  0  0  0  0  0  0  0  0  0  0  0
    5.4680    1.2016   17.7302 C   0  0  0  0  0  0  0  0  0  0  0  0
    3.7272    2.0908   19.1509 C   0  0  0  0  0  0  0  0  0  0  0  0
    3.9081    1.8847   21.5491 C   0  0  0  0  0  0  0  0  0  0  0  0
    3.2132    2.3153   20.4235 C   0  0  0  0  0  0  0  0  0  0  0  0
    4.7246   -0.2062   27.4878 H   0  0  0  0  0  0  0  0  0  0  0  0
    6.5411    3.4902   23.4857 H   0  0  0  0  0  0  0  0  0  0  0  0
    6.2691   -0.9768   25.8409 H   0  0  0  0  0  0  0  0  0  0  0  0
    7.0821   -0.4038   23.4862 H   0  0  0  0  0  0  0  0  0  0  0  0
    8.3529   -0.1811   24.4872 H   0  0  0  0  0  0  0  0  0  0  0  0
    9.1681    2.6257   24.2375 H   0  0  0  0  0  0  0  0  0  0  0  0
    8.6944    3.2196   22.7920 H   0  0  0  0  0  0  0  0  0  0  0  0
    8.1464    5.0630   24.2140 H   0  0  0  0  0  0  0  0  0  0  0  0
    6.8994    5.0006   25.2665 H   0  0  0  0  0  0  0  0  0  0  0  0
    8.3071    4.2539   25.6233 H   0  0  0  0  0  0  0  0  0  0  0  0
    7.1288   -0.6446   21.7432 H   0  0  0  0  0  0  0  0  0  0  0  0
    8.4031   -0.8176   20.7369 H   0  0  0  0  0  0  0  0  0  0  0  0
    8.2161   -0.3348   18.4889 H   0  0  0  0  0  0  0  0  0  0  0  0
    5.6253    0.9164   22.1781 H   0  0  0  0  0  0  0  0  0  0  0  0
    4.9653    1.5125   16.9235 H   0  0  0  0  0  0  0  0  0  0  0  0
    3.2229    2.4030   18.3458 H   0  0  0  0  0  0  0  0  0  0  0  0
    3.5425    2.0437   22.4662 H   0  0  0  0  0  0  0  0  0  0  0  0
    2.3389    2.7890   20.5301 H   0  0  0  0  0  0  0  0  0  0  0  0
  1  2  1  0  0  0  0
  2  3  2  0  0  0  0
  2  4  1  0  0  0  0
  3  5  1  0  0  0  0
  3  6  1  0  0  0  0
  4  7  2  0  0  0  0
  4  8  1  0  0  0  0
  6  9  2  0  0  0  0
  7 10  1  0  0  0  0
  8 11  1  0  0  0  0
  8 12  1  0  0  0  0
 10 13  1  0  0  0  0
 13 14  1  0  0  0  0
 14 15  2  0  0  0  0
 14 16  1  0  0  0  0
 16 17  1  0  0  0  0
 17 18  1  0  0  0  0
 17 19  2  0  0  0  0
 18 20  1  0  0  0  0
 18 21  2  0  0  0  0
 19 22  1  0  0  0  0
 20 23  1  0  0  0  0
 20 24  2  0  0  0  0
 21 25  1  0  0  0  0
 24 26  1  0  0  0  0
  7  9  1  0  0  0  0
 11 13  1  0  0  0  0
 22 23  2  0  0  0  0
 25 26  2  0  0  0  0
  6 27  1  0  0  0  0
  8 28  1  0  0  0  0
  9 29  1  0  0  0  0
 10 30  1  0  0  0  0
 10 31  1  0  0  0  0
 11 32  1  0  0  0  0
 11 33  1  0  0  0  0
 12 34  1  0  0  0  0
 12 35  1  0  0  0  0
 12 36  1  0  0  0  0
 16 37  1  0  0  0  0
 16 38  1  0  0  0  0
 19 39  1  0  0  0  0
 21 40  1  0  0  0  0
 23 41  1  0  0  0  0
 24 42  1  0  0  0  0
 25 43  1  0  0  0  0
 26 44  1  0  0  0  0
M  END
> <BIOSOLVEIT.HYDE_ESTIMATED_AFFINITY_LOWER_BOUNDARY [nM]>
969093.914768

> <BIOSOLVEIT.HYDE_ESTIMATED_AFFINITY_UPPER_BOUNDARY [nM]>
96285210.168853

> <BIOSOLVEIT.HYDE_LIGAND_EFFICIENCY range: ++, +, 0, -, -->
--

> <BIOSOLVEIT.HYDE_LIGAND_LIPOPHILIC_EFFICIENCY range: ++, +, 0, -, -->
--

> <BIOSOLVEIT.INTER_CLASH range: red, yellow, green>
green

> <BIOSOLVEIT.INTRA_CLASH range: red, yellow, green>
yellow

> <BIOSOLVEIT.LOGP>
5.23

> <BIOSOLVEIT.MOLECULAR WEIGHT>
385.292

> <BIOSOLVEIT.MOLECULE_CHECKSUM>
LTExLjUwMTk7MC40NDIzNzk=

> <BIOSOLVEIT.TORSION_QUALITY range: red, yellow, green, not rotatable>
green

> <BIOSOLVEIT.TPSA>
33.2

> <BIOSOLVEIT.SEESAR_FAVORITE>
favorite

> <smc_score>
0.938

> <QED_score>
0.605

> <distance>
0.586

> <SimilarityPheSA_1>
0.647

> <Smiles>
CC1CN(C(=O)Cc2cncc3ccccc23)Cc2ccc(Cl)c(Cl)c21

> <Similarity_SkelSpheres>
0.781

> <Cluster No>
53.0

> <QueryID>
PET-UNK-1901c25b-1

> <SimilarityPheSA>
0.6473

> <Postera series>
3-aminopyridine-like

> <PDB_code>
Mpro-x11790

> <Approach>
DGM_focussed_RL

> <ID>
20210618_113

> <SimilarityPheSA_2>
0.8

> <OPTIBRIUM.logD>
4.40624

> <OPTIBRIUM.BBB category>
+

> <OPTIBRIUM.logP>
4.40624

> <OPTIBRIUM.P-gp category>
no

> <OPTIBRIUM.logS>
0.321175

> <OPTIBRIUM.HIA category>
+

> <OPTIBRIUM.PPB90 category>
high

> <OPTIBRIUM.2D6 affinity category>
medium

> <OPTIBRIUM.hERG pIC50>
5.38808

> <OPTIBRIUM.2C9 pKi>
5.86156

> <OPTIBRIUM.BBB log([brain]:[blood])>
-0.366431

> <OPTIBRIUM.logS @ pH7.4>
0.321175

$$$$
Compound 1478_1_006
haSeeSAR  07122111353D 1   1.00000     0.00000     0
SeeSAR 11.0.2 hazemaj
 50 53  0  0  0  0            999 V2000
    6.5763    3.5928   25.2673 Cl  0  0  0  0  0  0  0  0  0  0  0  0
    7.4519    2.0775   25.5946 C   0  0  0  0  0  0  0  0  0  0  0  0
    7.7964    1.7412   26.8994 C   0  0  0  0  0  0  0  0  0  0  0  0
    7.7838    1.2384   24.5372 C   0  0  0  0  0  0  0  0  0  0  0  0
    7.3606    2.8335   28.2352 Cl  0  0  0  0  0  0  0  0  0  0  0  0
    8.4793    0.5587   27.1664 C   0  0  0  0  0  0  0  0  0  0  0  0
    8.4665    0.0584   24.8099 C   0  0  0  0  0  0  0  0  0  0  0  0
    8.8147   -0.2840   26.1121 C   0  0  0  0  0  0  0  0  0  0  0  0
    8.8371   -0.8716   23.6658 C   0  0  0  0  0  0  0  0  0  0  0  0
    9.4645   -0.0952   22.5867 N   0  0  0  0  0  0  0  0  0  0  0  0
    8.7353    0.3308   21.5683 C   0  0  0  0  0  0  0  0  0  0  0  0
   10.9016    0.2078   22.6393 C   0  0  0  0  0  0  0  0  0  0  0  0
    9.0959    1.3147   20.9222 O   0  0  0  0  0  0  0  0  0  0  0  0
    7.4526   -0.3945   21.1958 C   0  0  0  0  0  0  0  0  0  0  0  0
   11.1478    1.6828   22.8875 C   0  0  0  0  0  0  0  0  0  0  0  0
   11.5291   -0.4256   23.8641 C   0  0  0  0  0  0  0  0  0  0  0  0
    6.8349    0.2638   19.9720 C   0  0  0  0  0  0  0  0  0  0  0  0
   12.5977    1.6820   23.3259 C   0  0  0  0  0  0  0  0  0  0  0  0
   12.6660    0.4955   24.2709 C   0  0  0  0  0  0  0  0  0  0  0  0
    7.4692    0.1347   18.8207 N   0  0  0  0  0  0  0  0  0  0  0  0
    5.6174    0.9999   20.0355 C   0  0  0  0  0  0  0  0  0  0  0  0
    7.0119    0.6732   17.7032 N   0  0  0  0  0  0  0  0  0  0  0  0
    5.1149    1.5738   18.8725 C   0  0  0  0  0  0  0  0  0  0  0  0
    4.9056    1.1696   21.2201 C   0  0  0  0  0  0  0  0  0  0  0  0
    5.8497    1.3967   17.6675 C   0  0  0  0  0  0  0  0  0  0  0  0
    3.9249    2.2961   18.9217 C   0  0  0  0  0  0  0  0  0  0  0  0
    3.7187    1.8910   21.2627 C   0  0  0  0  0  0  0  0  0  0  0  0
    5.4882    1.8647   16.5980 O   0  0  0  0  0  0  0  0  0  0  0  0
    3.2123    2.4660   20.1027 C   0  0  0  0  0  0  0  0  0  0  0  0
    3.0677    2.0307   22.4126 F   0  0  0  0  0  0  0  0  0  0  0  0
    7.5362    1.4788   23.5985 H   0  0  0  0  0  0  0  0  0  0  0  0
    8.7258    0.3177   28.1051 H   0  0  0  0  0  0  0  0  0  0  0  0
    9.3065   -1.1363   26.2904 H   0  0  0  0  0  0  0  0  0  0  0  0
    8.0125   -1.3185   23.3189 H   0  0  0  0  0  0  0  0  0  0  0  0
    9.4787   -1.5648   23.9941 H   0  0  0  0  0  0  0  0  0  0  0  0
   11.3615   -0.0957   21.8047 H   0  0  0  0  0  0  0  0  0  0  0  0
    6.8092   -0.3477   21.9600 H   0  0  0  0  0  0  0  0  0  0  0  0
    7.6581   -1.3516   20.9914 H   0  0  0  0  0  0  0  0  0  0  0  0
   10.5497    2.0364   23.6066 H   0  0  0  0  0  0  0  0  0  0  0  0
   11.0194    2.2194   22.0535 H   0  0  0  0  0  0  0  0  0  0  0  0
   11.8801   -1.3357   23.6442 H   0  0  0  0  0  0  0  0  0  0  0  0
   10.8578   -0.4965   24.6019 H   0  0  0  0  0  0  0  0  0  0  0  0
   12.8312    2.5319   23.7982 H   0  0  0  0  0  0  0  0  0  0  0  0
   13.2095    1.5557   22.5450 H   0  0  0  0  0  0  0  0  0  0  0  0
   13.5443    0.0264   24.1774 H   0  0  0  0  0  0  0  0  0  0  0  0
   12.5482    0.7969   25.2171 H   0  0  0  0  0  0  0  0  0  0  0  0
    7.5309    0.5483   16.8575 H   0  0  0  0  0  0  0  0  0  0  0  0
    5.2578    0.7614   22.0623 H   0  0  0  0  0  0  0  0  0  0  0  0
    3.5720    2.7056   18.0802 H   0  0  0  0  0  0  0  0  0  0  0  0
    2.3591    2.9873   20.1178 H   0  0  0  0  0  0  0  0  0  0  0  0
  1  2  1  0  0  0  0
  2  3  2  0  0  0  0
  2  4  1  0  0  0  0
  3  5  1  0  0  0  0
  3  6  1  0  0  0  0
  4  7  2  0  0  0  0
  6  8  2  0  0  0  0
  7  9  1  0  0  0  0
  9 10  1  0  0  0  0
 10 11  1  0  0  0  0
 10 12  1  0  0  0  0
 11 13  2  0  0  0  0
 11 14  1  0  0  0  0
 12 15  1  0  0  0  0
 12 16  1  0  0  0  0
 14 17  1  0  0  0  0
 15 18  1  0  0  0  0
 16 19  1  0  0  0  0
 17 20  2  0  0  0  0
 17 21  1  0  0  0  0
 20 22  1  0  0  0  0
 21 23  2  0  0  0  0
 21 24  1  0  0  0  0
 22 25  1  0  0  0  0
 23 26  1  0  0  0  0
 24 27  2  0  0  0  0
 25 28  2  0  0  0  0
 26 29  2  0  0  0  0
 27 30  1  0  0  0  0
  7  8  1  0  0  0  0
 18 19  1  0  0  0  0
 23 25  1  0  0  0  0
 27 29  1  0  0  0  0
  4 31  1  0  0  0  0
  6 32  1  0  0  0  0
  8 33  1  0  0  0  0
  9 34  1  0  0  0  0
  9 35  1  0  0  0  0
 12 36  1  0  0  0  0
 14 37  1  0  0  0  0
 14 38  1  0  0  0  0
 15 39  1  0  0  0  0
 15 40  1  0  0  0  0
 16 41  1  0  0  0  0
 16 42  1  0  0  0  0
 18 43  1  0  0  0  0
 18 44  1  0  0  0  0
 19 45  1  0  0  0  0
 19 46  1  0  0  0  0
 22 47  1  0  0  0  0
 24 48  1  0  0  0  0
 26 49  1  0  0  0  0
 29 50  1  0  0  0  0
M  END
> <BIOSOLVEIT.HYDE_ESTIMATED_AFFINITY_LOWER_BOUNDARY [nM]>
969806.716511

> <BIOSOLVEIT.HYDE_ESTIMATED_AFFINITY_UPPER_BOUNDARY [nM]>
96356031.236489

> <BIOSOLVEIT.HYDE_LIGAND_EFFICIENCY range: ++, +, 0, -, -->
--

> <BIOSOLVEIT.HYDE_LIGAND_LIPOPHILIC_EFFICIENCY range: ++, +, 0, -, -->
--

> <BIOSOLVEIT.INTER_CLASH range: red, yellow, green>
green

> <BIOSOLVEIT.INTRA_CLASH range: red, yellow, green>
yellow

> <BIOSOLVEIT.LOGP>
4.8829

> <BIOSOLVEIT.MOLECULAR WEIGHT>
448.323

> <BIOSOLVEIT.MOLECULE_CHECKSUM>
LTExLjU7MC4zODMzMzQ=

> <BIOSOLVEIT.TORSION_QUALITY range: red, yellow, green, not rotatable>
red

> <BIOSOLVEIT.TPSA>
66.06

> <BIOSOLVEIT.SEESAR_FAVORITE>
favorite

> <smc_score>
0.75

> <QED_score>
0.605

> <distance>
0.738

> <SimilarityPheSA_1>
0.637

> <Smiles>
O=C(Cc1n[nH]c(=O)c2ccc(F)cc12)N(Cc1ccc(Cl)c(Cl)c1)C1CCCC1

> <Similarity_SkelSpheres>
0.604

> <Cluster No>
330.0

> <QueryID>
CHO-MSK-00c5269a-2

> <SimilarityPheSA>
0.6366

> <Postera series>
3-aminopyridine-like

> <PDB_code>
Mpro-x12177

> <Approach>
DGM_exploratory_RL

> <ID>
20210628_748

> <SimilarityPheSA_2>
0.68

> <OPTIBRIUM.logD>
4.17741

> <OPTIBRIUM.BBB category>
-

> <OPTIBRIUM.logP>
4.17741

> <OPTIBRIUM.P-gp category>
yes

> <OPTIBRIUM.logS>
0.118412

> <OPTIBRIUM.HIA category>
+

> <OPTIBRIUM.PPB90 category>
high

> <OPTIBRIUM.2D6 affinity category>
high

> <OPTIBRIUM.hERG pIC50>
6.00867

> <OPTIBRIUM.2C9 pKi>
5.31428

> <OPTIBRIUM.BBB log([brain]:[blood])>
-1.15394

> <OPTIBRIUM.logS @ pH7.4>
0.118412

$$$$
Compound 1478_1_004
haSeeSAR  07122111353D 1   1.00000     0.00000     0
SeeSAR 11.0.2 hazemaj
 50 53  0  0  0  0            999 V2000
    8.8050   -1.6381   28.3705 Cl  0  0  0  0  0  0  0  0  0  0  0  0
    8.2454   -1.1236   26.7607 C   0  0  0  0  0  0  0  0  0  0  0  0
    7.1050   -0.3371   26.6392 C   0  0  0  0  0  0  0  0  0  0  0  0
    8.9586   -1.5135   25.6328 C   0  0  0  0  0  0  0  0  0  0  0  0
    6.2093    0.1476   28.0989 Cl  0  0  0  0  0  0  0  0  0  0  0  0
    6.6597    0.0720   25.3861 C   0  0  0  0  0  0  0  0  0  0  0  0
    8.5089   -1.1023   24.3831 C   0  0  0  0  0  0  0  0  0  0  0  0
    7.3689   -0.3162   24.2543 C   0  0  0  0  0  0  0  0  0  0  0  0
    9.2767   -1.5188   23.1388 C   0  0  0  0  0  0  0  0  0  0  0  0
    9.6765   -0.3211   22.3859 N   0  0  0  0  0  0  0  0  0  0  0  0
    8.8811    0.1664   21.4477 C   0  0  0  0  0  0  0  0  0  0  0  0
   10.9594    0.3346   22.6753 C   0  0  0  0  0  0  0  0  0  0  0  0
    9.1481    1.2423   20.9125 O   0  0  0  0  0  0  0  0  0  0  0  0
    7.6378   -0.6021   21.0306 C   0  0  0  0  0  0  0  0  0  0  0  0
   11.2068    0.4454   24.1649 C   0  0  0  0  0  0  0  0  0  0  0  0
   12.1255   -0.5284   22.2507 C   0  0  0  0  0  0  0  0  0  0  0  0
    6.9535    0.1249   19.8834 C   0  0  0  0  0  0  0  0  0  0  0  0
   12.7075    0.6290   24.2706 C   0  0  0  0  0  0  0  0  0  0  0  0
   13.3165   -0.0093   23.0344 C   0  0  0  0  0  0  0  0  0  0  0  0
    7.5397    0.0917   18.7002 N   0  0  0  0  0  0  0  0  0  0  0  0
    5.7248    0.8254   20.0498 C   0  0  0  0  0  0  0  0  0  0  0  0
    7.0229    0.6956   17.6437 N   0  0  0  0  0  0  0  0  0  0  0  0
    5.1602    1.4668   18.9524 C   0  0  0  0  0  0  0  0  0  0  0  0
    5.0619    0.8949   21.2723 C   0  0  0  0  0  0  0  0  0  0  0  0
    5.8452    1.3917   17.7081 C   0  0  0  0  0  0  0  0  0  0  0  0
    3.9585    2.1551   19.1025 C   0  0  0  0  0  0  0  0  0  0  0  0
    3.8630    1.5830   21.4157 C   0  0  0  0  0  0  0  0  0  0  0  0
    5.4277    1.9242   16.6906 O   0  0  0  0  0  0  0  0  0  0  0  0
    3.2946    2.2251   20.3215 C   0  0  0  0  0  0  0  0  0  0  0  0
    3.2602    1.6265   22.5988 F   0  0  0  0  0  0  0  0  0  0  0  0
    9.7791   -2.0786   25.7187 H   0  0  0  0  0  0  0  0  0  0  0  0
    5.8399    0.6380   25.3002 H   0  0  0  0  0  0  0  0  0  0  0  0
    7.0590   -0.0300   23.3477 H   0  0  0  0  0  0  0  0  0  0  0  0
    8.6942   -2.0944   22.5648 H   0  0  0  0  0  0  0  0  0  0  0  0
   10.0923   -2.0318   23.4065 H   0  0  0  0  0  0  0  0  0  0  0  0
   11.0053    1.2335   22.2397 H   0  0  0  0  0  0  0  0  0  0  0  0
    7.0099   -0.6664   21.8062 H   0  0  0  0  0  0  0  0  0  0  0  0
    7.8976   -1.5214   20.7350 H   0  0  0  0  0  0  0  0  0  0  0  0
   10.9157   -0.3867   24.6369 H   0  0  0  0  0  0  0  0  0  0  0  0
   10.7238    1.2326   24.5485 H   0  0  0  0  0  0  0  0  0  0  0  0
   12.2874   -0.4389   21.2679 H   0  0  0  0  0  0  0  0  0  0  0  0
   11.9507   -1.4873   22.4738 H   0  0  0  0  0  0  0  0  0  0  0  0
   13.0519    0.1798   25.0951 H   0  0  0  0  0  0  0  0  0  0  0  0
   12.9337    1.6025   24.3022 H   0  0  0  0  0  0  0  0  0  0  0  0
   13.8237    0.6671   22.5005 H   0  0  0  0  0  0  0  0  0  0  0  0
   13.9271   -0.7596   23.2881 H   0  0  0  0  0  0  0  0  0  0  0  0
    7.5070    0.6424   16.7704 H   0  0  0  0  0  0  0  0  0  0  0  0
    5.4589    0.4376   22.0680 H   0  0  0  0  0  0  0  0  0  0  0  0
    3.5608    2.6134   18.3077 H   0  0  0  0  0  0  0  0  0  0  0  0
    2.4321    2.7233   20.4091 H   0  0  0  0  0  0  0  0  0  0  0  0
  1  2  1  0  0  0  0
  2  3  2  0  0  0  0
  2  4  1  0  0  0  0
  3  5  1  0  0  0  0
  3  6  1  0  0  0  0
  4  7  2  0  0  0  0
  6  8  2  0  0  0  0
  7  9  1  0  0  0  0
  9 10  1  0  0  0  0
 10 11  1  0  0  0  0
 10 12  1  0  0  0  0
 11 13  2  0  0  0  0
 11 14  1  0  0  0  0
 12 15  1  0  0  0  0
 12 16  1  0  0  0  0
 14 17  1  0  0  0  0
 15 18  1  0  0  0  0
 16 19  1  0  0  0  0
 17 20  2  0  0  0  0
 17 21  1  0  0  0  0
 20 22  1  0  0  0  0
 21 23  2  0  0  0  0
 21 24  1  0  0  0  0
 22 25  1  0  0  0  0
 23 26  1  0  0  0  0
 24 27  2  0  0  0  0
 25 28  2  0  0  0  0
 26 29  2  0  0  0  0
 27 30  1  0  0  0  0
  7  8  1  0  0  0  0
 18 19  1  0  0  0  0
 23 25  1  0  0  0  0
 27 29  1  0  0  0  0
  4 31  1  0  0  0  0
  6 32  1  0  0  0  0
  8 33  1  0  0  0  0
  9 34  1  0  0  0  0
  9 35  1  0  0  0  0
 12 36  1  0  0  0  0
 14 37  1  0  0  0  0
 14 38  1  0  0  0  0
 15 39  1  0  0  0  0
 15 40  1  0  0  0  0
 16 41  1  0  0  0  0
 16 42  1  0  0  0  0
 18 43  1  0  0  0  0
 18 44  1  0  0  0  0
 19 45  1  0  0  0  0
 19 46  1  0  0  0  0
 22 47  1  0  0  0  0
 24 48  1  0  0  0  0
 26 49  1  0  0  0  0
 29 50  1  0  0  0  0
M  END
> <BIOSOLVEIT.HYDE_ESTIMATED_AFFINITY_LOWER_BOUNDARY [nM]>
1080331.874971

> <BIOSOLVEIT.HYDE_ESTIMATED_AFFINITY_UPPER_BOUNDARY [nM]>
107337359.205885

> <BIOSOLVEIT.HYDE_LIGAND_EFFICIENCY range: ++, +, 0, -, -->
--

> <BIOSOLVEIT.HYDE_LIGAND_LIPOPHILIC_EFFICIENCY range: ++, +, 0, -, -->
--

> <BIOSOLVEIT.INTER_CLASH range: red, yellow, green>
green

> <BIOSOLVEIT.INTRA_CLASH range: red, yellow, green>
green

> <BIOSOLVEIT.LOGP>
4.8829

> <BIOSOLVEIT.MOLECULAR WEIGHT>
448.323

> <BIOSOLVEIT.MOLECULE_CHECKSUM>
LTExLjIzMjU7MC4zNzQ0MTY=

> <BIOSOLVEIT.TORSION_QUALITY range: red, yellow, green, not rotatable>
green

> <BIOSOLVEIT.TPSA>
66.06

> <BIOSOLVEIT.SEESAR_FAVORITE>
favorite

> <smc_score>
0.75

> <QED_score>
0.605

> <distance>
0.738

> <SimilarityPheSA_1>
0.637

> <Smiles>
O=C(Cc1n[nH]c(=O)c2ccc(F)cc12)N(Cc1ccc(Cl)c(Cl)c1)C1CCCC1

> <Similarity_SkelSpheres>
0.604

> <Cluster No>
330.0

> <QueryID>
CHO-MSK-00c5269a-2

> <SimilarityPheSA>
0.6366

> <Postera series>
3-aminopyridine-like

> <PDB_code>
Mpro-x12177

> <Approach>
DGM_exploratory_RL

> <ID>
20210628_748

> <SimilarityPheSA_2>
0.68

> <OPTIBRIUM.logD>
4.17741

> <OPTIBRIUM.BBB category>
-

> <OPTIBRIUM.logP>
4.17741

> <OPTIBRIUM.P-gp category>
yes

> <OPTIBRIUM.logS>
0.118412

> <OPTIBRIUM.HIA category>
+

> <OPTIBRIUM.PPB90 category>
high

> <OPTIBRIUM.2D6 affinity category>
high

> <OPTIBRIUM.hERG pIC50>
6.00867

> <OPTIBRIUM.2C9 pKi>
5.31428

> <OPTIBRIUM.BBB log([brain]:[blood])>
-1.15394

> <OPTIBRIUM.logS @ pH7.4>
0.118412

$$$$
Compound 540_1_04
haSeeSAR  07122111353D 1   1.00000     0.00000     0
SeeSAR 11.0.2 hazemaj
 35 38  0  0  0  0            999 V2000
   11.5682    1.9143   22.4261 Cl  0  0  0  0  0  0  0  0  0  0  0  0
   11.0420    0.2397   22.7213 C   0  0  0  0  0  0  0  0  0  0  0  0
   11.9793   -0.7872   22.6951 C   0  0  0  0  0  0  0  0  0  0  0  0
    9.7125   -0.0809   22.9785 C   0  0  0  0  0  0  0  0  0  0  0  0
   13.6963   -0.4467   22.3709 Cl  0  0  0  0  0  0  0  0  0  0  0  0
   11.5450   -2.0880   22.9289 C   0  0  0  0  0  0  0  0  0  0  0  0
    9.2541   -1.3492   23.2145 C   0  0  0  0  0  0  0  0  0  0  0  0
    8.5289    0.8590   23.0533 C   0  0  1  0  0  0  0  0  0  0  0  0
   10.2069   -2.3628   23.1855 C   0  0  0  0  0  0  0  0  0  0  0  0
    7.9206   -1.3292   23.4363 O   0  0  0  0  0  0  0  0  0  0  0  0
    7.9378    1.1445   21.6825 C   0  0  0  0  0  0  0  0  0  0  0  0
    7.6133   -0.0208   23.8790 C   0  0  0  0  0  0  0  0  0  0  0  0
    8.4140    2.0364   20.9805 O   0  0  0  0  0  0  0  0  0  0  0  0
    6.9114    0.4342   21.2438 N   0  0  0  0  0  0  0  0  0  0  0  0
    6.3663    0.6974   19.9799 C   0  0  0  0  0  0  0  0  0  0  0  0
    5.2146    1.4339   19.8134 N   0  0  0  0  0  0  0  0  0  0  0  0
    7.0398    0.1834   18.9027 C   0  0  0  0  0  0  0  0  0  0  0  0
    4.7411    1.6550   18.5619 C   0  0  0  0  0  0  0  0  0  0  0  0
    4.3452    2.0485   20.6634 C   0  0  0  0  0  0  0  0  0  0  0  0
    6.5480    0.4136   17.6433 N   0  0  0  0  0  0  0  0  0  0  0  0
    3.6385    2.3648   18.6545 N   0  0  0  0  0  0  0  0  0  0  0  0
    5.4452    1.1170   17.4510 C   0  0  0  0  0  0  0  0  0  0  0  0
    3.4095    2.5980   19.9287 N   0  0  0  0  0  0  0  0  0  0  0  0
    4.4066    2.1082   22.1834 C   0  0  0  0  0  0  0  0  0  0  0  0
   12.2065   -2.8378   22.9121 H   0  0  0  0  0  0  0  0  0  0  0  0
    8.7605    1.7034   23.5364 H   0  0  0  0  0  0  0  0  0  0  0  0
    9.9236   -3.3072   23.3526 H   0  0  0  0  0  0  0  0  0  0  0  0
    6.6536    0.1991   23.7041 H   0  0  0  0  0  0  0  0  0  0  0  0
    7.8058    0.0802   24.8551 H   0  0  0  0  0  0  0  0  0  0  0  0
    6.5245   -0.2904   21.8141 H   0  0  0  0  0  0  0  0  0  0  0  0
    7.8753   -0.3503   19.0326 H   0  0  0  0  0  0  0  0  0  0  0  0
    5.1060    1.2703   16.5229 H   0  0  0  0  0  0  0  0  0  0  0  0
    3.6275    2.6318   22.5282 H   0  0  0  0  0  0  0  0  0  0  0  0
    4.3754    1.1803   22.5549 H   0  0  0  0  0  0  0  0  0  0  0  0
    5.2573    2.5518   22.4654 H   0  0  0  0  0  0  0  0  0  0  0  0
  1  2  1  0  0  0  0
  2  3  2  0  0  0  0
  2  4  1  0  0  0  0
  3  5  1  0  0  0  0
  3  6  1  0  0  0  0
  4  7  2  0  0  0  0
  4  8  1  0  0  0  0
  6  9  2  0  0  0  0
  7 10  1  0  0  0  0
  8 11  1  0  0  0  0
  8 12  1  0  0  0  0
 11 13  2  0  0  0  0
 11 14  1  0  0  0  0
 14 15  1  0  0  0  0
 15 16  1  0  0  0  0
 15 17  2  0  0  0  0
 16 18  1  0  0  0  0
 16 19  1  0  0  0  0
 17 20  1  0  0  0  0
 18 21  2  0  0  0  0
 18 22  1  0  0  0  0
 19 23  2  0  0  0  0
 19 24  1  0  0  0  0
  7  9  1  0  0  0  0
 10 12  1  0  0  0  0
 20 22  2  0  0  0  0
 21 23  1  0  0  0  0
  6 25  1  0  0  0  0
  8 26  1  0  0  0  0
  9 27  1  0  0  0  0
 12 28  1  0  0  0  0
 12 29  1  0  0  0  0
 14 30  1  0  0  0  0
 17 31  1  0  0  0  0
 22 32  1  0  0  0  0
 24 33  1  0  0  0  0
 24 34  1  0  0  0  0
 24 35  1  0  0  0  0
M  END
> <BIOSOLVEIT.HYDE_ESTIMATED_AFFINITY_LOWER_BOUNDARY [nM]>
1094316.087829

> <BIOSOLVEIT.HYDE_ESTIMATED_AFFINITY_UPPER_BOUNDARY [nM]>
108726773.434598

> <BIOSOLVEIT.HYDE_LIGAND_EFFICIENCY range: ++, +, 0, -, -->
--

> <BIOSOLVEIT.HYDE_LIGAND_LIPOPHILIC_EFFICIENCY range: ++, +, 0, -, -->
--

> <BIOSOLVEIT.INTER_CLASH range: red, yellow, green>
green

> <BIOSOLVEIT.INTRA_CLASH range: red, yellow, green>
green

> <BIOSOLVEIT.LOGP>
2.85422

> <BIOSOLVEIT.MOLECULAR WEIGHT>
364.191

> <BIOSOLVEIT.MOLECULE_CHECKSUM>
LTExLjIwMDY7MC40NjY2OTI=

> <BIOSOLVEIT.TORSION_QUALITY range: red, yellow, green, not rotatable>
green

> <BIOSOLVEIT.TPSA>
81.93

> <BIOSOLVEIT.SEESAR_FAVORITE>
favorite

> <smc_score>
0.688

> <QED_score>
0.756

> <distance>
0.608

> <SimilarityPheSA_1>
0.675

> <Smiles>
Cc1nnc2cncc(NC(=O)C3COc4ccc(Cl)c(Cl)c43)n12

> <Similarity_SkelSpheres>
0.572

> <Cluster No>
288.0

> <QueryID>
EDJ-MED-e4b030d8-13

> <SimilarityPheSA>
0.6751

> <Postera series>
3-aminopyridine-like

> <PDB_code>
Mpro-x12207

> <Approach>
DGM_focussed_RL

> <ID>
20210618_539

> <SimilarityPheSA_2>
0.919

> <OPTIBRIUM.logD>
2.6583

> <OPTIBRIUM.BBB category>
-

> <OPTIBRIUM.logP>
2.6583

> <OPTIBRIUM.P-gp category>
no

> <OPTIBRIUM.logS>
1.66321

> <OPTIBRIUM.HIA category>
+

> <OPTIBRIUM.PPB90 category>
high

> <OPTIBRIUM.2D6 affinity category>
high

> <OPTIBRIUM.hERG pIC50>
4.70586

> <OPTIBRIUM.2C9 pKi>
5.48148

> <OPTIBRIUM.BBB log([brain]:[blood])>
-0.434145

> <OPTIBRIUM.logS @ pH7.4>
1.66321

$$$$
Compound 653_1_1
haSeeSAR  07122111353D 1   1.00000     0.00000     0
SeeSAR 11.0.2 hazemaj
 39 42  0  0  0  0            999 V2000
    8.8987    7.1985   23.8856 Cl  0  0  0  0  0  0  0  0  0  0  0  0
    8.2490    5.5483   23.7393 C   0  0  0  0  0  0  0  0  0  0  0  0
    9.1252    4.4974   23.4870 C   0  0  0  0  0  0  0  0  0  0  0  0
    6.8772    5.3663   23.8851 C   0  0  0  0  0  0  0  0  0  0  0  0
   10.4583    4.3928   23.3374 O   0  0  0  0  0  0  0  0  0  0  0  0
    8.5336    3.2587   23.3792 C   0  0  0  0  0  0  0  0  0  0  0  0
    6.3305    4.0925   23.7795 C   0  0  0  0  0  0  0  0  0  0  0  0
   10.7663    3.1880   22.6674 C   0  0  0  0  0  0  0  0  0  0  0  0
    7.1712    3.0171   23.5203 C   0  0  0  0  0  0  0  0  0  0  0  0
    9.6394    2.2662   23.0938 C   0  0  2  0  0  0  0  0  0  0  0  0
    4.5823    3.8264   23.9706 Cl  0  0  0  0  0  0  0  0  0  0  0  0
    9.2573    1.2379   22.0415 C   0  0  0  0  0  0  0  0  0  0  0  0
    9.0360    1.5946   20.8843 O   0  0  0  0  0  0  0  0  0  0  0  0
    9.1626   -0.0403   22.3693 N   0  0  0  0  0  0  0  0  0  0  0  0
    8.7930   -1.0347   21.3517 C   0  0  0  0  0  0  0  0  0  0  0  0
    7.3520   -1.4678   21.5663 C   0  0  0  0  0  0  0  0  0  0  0  0
    6.4484   -0.3769   21.1717 N   0  0  0  0  0  0  0  0  0  0  0  0
    6.2431    0.0553   19.8941 C   0  0  0  0  0  0  0  0  0  0  0  0
    5.6892    0.3566   22.0345 C   0  0  0  0  0  0  0  0  0  0  0  0
    5.3331    1.0763   19.9916 C   0  0  0  0  0  0  0  0  0  0  0  0
    6.7463   -0.3299   18.6528 C   0  0  0  0  0  0  0  0  0  0  0  0
    5.0210    1.2287   21.3170 N   0  0  0  0  0  0  0  0  0  0  0  0
    4.9546    1.6880   18.8000 C   0  0  0  0  0  0  0  0  0  0  0  0
    6.3696    0.2718   17.5132 N   0  0  0  0  0  0  0  0  0  0  0  0
    5.4805    1.2743   17.5797 C   0  0  0  0  0  0  0  0  0  0  0  0
    6.2848    6.1515   24.0658 H   0  0  0  0  0  0  0  0  0  0  0  0
   11.6536    2.8306   22.9593 H   0  0  0  0  0  0  0  0  0  0  0  0
   10.7693    3.3181   21.6759 H   0  0  0  0  0  0  0  0  0  0  0  0
    6.8051    2.0904   23.4372 H   0  0  0  0  0  0  0  0  0  0  0  0
    9.8938    1.7982   23.9401 H   0  0  0  0  0  0  0  0  0  0  0  0
    9.3423   -0.3300   23.3094 H   0  0  0  0  0  0  0  0  0  0  0  0
    9.3950   -1.8295   21.4283 H   0  0  0  0  0  0  0  0  0  0  0  0
    8.8878   -0.6313   20.4416 H   0  0  0  0  0  0  0  0  0  0  0  0
    7.2097   -1.6857   22.5319 H   0  0  0  0  0  0  0  0  0  0  0  0
    7.1608   -2.2767   21.0103 H   0  0  0  0  0  0  0  0  0  0  0  0
    5.6490    0.2500   23.0280 H   0  0  0  0  0  0  0  0  0  0  0  0
    7.4086   -1.0780   18.6096 H   0  0  0  0  0  0  0  0  0  0  0  0
    4.2932    2.4377   18.8211 H   0  0  0  0  0  0  0  0  0  0  0  0
    5.1909    1.7317   16.7389 H   0  0  0  0  0  0  0  0  0  0  0  0
  1  2  1  0  0  0  0
  2  3  2  0  0  0  0
  2  4  1  0  0  0  0
  3  5  1  0  0  0  0
  3  6  1  0  0  0  0
  4  7  2  0  0  0  0
  5  8  1  0  0  0  0
  6  9  2  0  0  0  0
  6 10  1  0  0  0  0
  7 11  1  0  0  0  0
 10 12  1  0  0  0  0
 12 13  2  0  0  0  0
 12 14  1  0  0  0  0
 14 15  1  0  0  0  0
 15 16  1  0  0  0  0
 16 17  1  0  0  0  0
 17 18  1  0  0  0  0
 17 19  1  0  0  0  0
 18 20  2  0  0  0  0
 18 21  1  0  0  0  0
 19 22  2  0  0  0  0
 20 23  1  0  0  0  0
 21 24  2  0  0  0  0
 23 25  2  0  0  0  0
  7  9  1  0  0  0  0
  8 10  1  0  0  0  0
 20 22  1  0  0  0  0
 24 25  1  0  0  0  0
  4 26  1  0  0  0  0
  8 27  1  0  0  0  0
  8 28  1  0  0  0  0
  9 29  1  0  0  0  0
 10 30  1  0  0  0  0
 14 31  1  0  0  0  0
 15 32  1  0  0  0  0
 15 33  1  0  0  0  0
 16 34  1  0  0  0  0
 16 35  1  0  0  0  0
 19 36  1  0  0  0  0
 21 37  1  0  0  0  0
 23 38  1  0  0  0  0
 25 39  1  0  0  0  0
M  END
> <BIOSOLVEIT.HYDE_ESTIMATED_AFFINITY_LOWER_BOUNDARY [nM]>
1214092.828395

> <BIOSOLVEIT.HYDE_ESTIMATED_AFFINITY_UPPER_BOUNDARY [nM]>
120627300.785984

> <BIOSOLVEIT.HYDE_LIGAND_EFFICIENCY range: ++, +, 0, -, -->
--

> <BIOSOLVEIT.HYDE_LIGAND_LIPOPHILIC_EFFICIENCY range: ++, +, 0, -, -->
--

> <BIOSOLVEIT.INTER_CLASH range: red, yellow, green>
green

> <BIOSOLVEIT.INTRA_CLASH range: red, yellow, green>
green

> <BIOSOLVEIT.LOGP>
3.0305

> <BIOSOLVEIT.MOLECULAR WEIGHT>
377.23

> <BIOSOLVEIT.MOLECULE_CHECKSUM>
LTEwLjk0MzE7MC40Mzc3MjU=

> <BIOSOLVEIT.TORSION_QUALITY range: red, yellow, green, not rotatable>
green

> <BIOSOLVEIT.TPSA>
69.04

> <BIOSOLVEIT.SEESAR_FAVORITE>
favorite

> <smc_score>
0.813

> <QED_score>
0.759

> <distance>
0.618

> <SimilarityPheSA_1>
0.739

> <Smiles>
O=C(NCCn1cnc2ccncc21)C1COc2c(Cl)cc(Cl)cc21

> <Similarity_SkelSpheres>
0.669

> <Cluster No>
362.0

> <QueryID>
JAN-GHE-5a013bed-2

> <SimilarityPheSA>
0.7385

> <Postera series>
3-aminopyridine-like

> <PDB_code>
Mpro-x10466

> <Approach>
DGM_focussed_RL

> <ID>
20210618_652

> <SimilarityPheSA_2>
0.682

> <OPTIBRIUM.logD>
2.70175

> <OPTIBRIUM.BBB category>
-

> <OPTIBRIUM.logP>
2.70175

> <OPTIBRIUM.P-gp category>
no

> <OPTIBRIUM.logS>
1.29673

> <OPTIBRIUM.HIA category>
+

> <OPTIBRIUM.PPB90 category>
high

> <OPTIBRIUM.2D6 affinity category>
high

> <OPTIBRIUM.hERG pIC50>
4.90344

> <OPTIBRIUM.2C9 pKi>
5.48451

> <OPTIBRIUM.BBB log([brain]:[blood])>
-0.567792

> <OPTIBRIUM.logS @ pH7.4>
1.29673

$$$$
Compound 672_1_007
haSeeSAR  07122111353D 1   1.00000     0.00000     0
SeeSAR 11.0.2 hazemaj
 50 53  0  0  0  0            999 V2000
    2.5485   -8.1033   24.1523 Cl  0  0  0  0  0  0  0  0  0  0  0  0
    3.9384   -7.0083   24.3468 C   0  0  0  0  0  0  0  0  0  0  0  0
    4.8049   -6.8154   23.2759 C   0  0  0  0  0  0  0  0  0  0  0  0
    4.1555   -6.3611   25.5576 C   0  0  0  0  0  0  0  0  0  0  0  0
    4.5559   -7.6442   21.7186 Cl  0  0  0  0  0  0  0  0  0  0  0  0
    5.8825   -5.9613   23.4779 C   0  0  0  0  0  0  0  0  0  0  0  0
    5.2427   -5.5159   25.7526 C   0  0  0  0  0  0  0  0  0  0  0  0
    6.1105   -5.3146   24.6910 C   0  0  0  0  0  0  0  0  0  0  0  0
    5.4983   -4.8910   26.9231 O   0  0  0  0  0  0  0  0  0  0  0  0
    7.2827   -4.3760   24.9362 C   0  0  1  0  0  0  0  0  0  0  0  0
    6.8312   -4.7405   27.3980 C   0  0  0  0  0  0  0  0  0  0  0  0
    7.8617   -4.7931   26.2749 C   0  0  0  0  0  0  0  0  0  0  0  0
    8.4014   -4.5207   23.9193 C   0  0  0  0  0  0  0  0  0  0  0  0
    9.4821   -3.4908   24.2050 C   0  0  0  0  0  0  0  0  0  0  0  0
   10.3343   -3.7150   25.0646 O   0  0  0  0  0  0  0  0  0  0  0  0
    9.5083   -2.2890   23.4916 N   0  0  0  0  0  0  0  0  0  0  0  0
    8.4076   -1.3292   23.4259 C   0  0  0  0  0  0  0  0  0  0  0  0
   10.6407   -1.7927   22.7142 C   0  0  0  0  0  0  0  0  0  0  0  0
    9.0660   -0.0054   23.0831 C   0  0  1  0  0  0  0  0  0  0  0  0
   10.5539   -0.3152   23.0239 C   0  0  0  0  0  0  0  0  0  0  0  0
    8.5242    0.4858   21.7505 C   0  0  0  0  0  0  0  0  0  0  0  0
    9.1939    1.2529   21.0590 O   0  0  0  0  0  0  0  0  0  0  0  0
    7.3330    0.0888   21.3340 N   0  0  0  0  0  0  0  0  0  0  0  0
    6.8332    0.5419   20.1050 C   0  0  0  0  0  0  0  0  0  0  0  0
    7.4315    0.1984   18.8964 C   0  0  0  0  0  0  0  0  0  0  0  0
    5.7088    1.3588   20.0710 C   0  0  0  0  0  0  0  0  0  0  0  0
    6.9385    0.6412   17.7296 N   0  0  0  0  0  0  0  0  0  0  0  0
    5.2104    1.8083   18.8515 C   0  0  0  0  0  0  0  0  0  0  0  0
    5.8528    1.4284   17.6772 C   0  0  0  0  0  0  0  0  0  0  0  0
    5.3653    1.8655   16.5208 F   0  0  0  0  0  0  0  0  0  0  0  0
    3.5124   -6.5073   26.3092 H   0  0  0  0  0  0  0  0  0  0  0  0
    6.5193   -5.8046   22.7229 H   0  0  0  0  0  0  0  0  0  0  0  0
    6.9673   -3.4278   24.9739 H   0  0  0  0  0  0  0  0  0  0  0  0
    7.0257   -5.4768   28.0461 H   0  0  0  0  0  0  0  0  0  0  0  0
    6.9083   -3.8584   27.8626 H   0  0  0  0  0  0  0  0  0  0  0  0
    8.6168   -4.1786   26.5032 H   0  0  0  0  0  0  0  0  0  0  0  0
    8.2052   -5.7291   26.1981 H   0  0  0  0  0  0  0  0  0  0  0  0
    8.0368   -4.3750   22.9997 H   0  0  0  0  0  0  0  0  0  0  0  0
    8.7916   -5.4394   23.9815 H   0  0  0  0  0  0  0  0  0  0  0  0
    7.9380   -1.2711   24.3069 H   0  0  0  0  0  0  0  0  0  0  0  0
    7.7537   -1.5914   22.7162 H   0  0  0  0  0  0  0  0  0  0  0  0
   10.5264   -1.9733   21.7372 H   0  0  0  0  0  0  0  0  0  0  0  0
   11.5052   -2.1862   23.0270 H   0  0  0  0  0  0  0  0  0  0  0  0
    8.8818    0.6674   23.7996 H   0  0  0  0  0  0  0  0  0  0  0  0
   10.9950    0.2204   22.3038 H   0  0  0  0  0  0  0  0  0  0  0  0
   10.9887   -0.1151   23.9020 H   0  0  0  0  0  0  0  0  0  0  0  0
    6.7888   -0.5343   21.8958 H   0  0  0  0  0  0  0  0  0  0  0  0
    8.2417   -0.3877   18.8976 H   0  0  0  0  0  0  0  0  0  0  0  0
    5.2578    1.6237   20.9234 H   0  0  0  0  0  0  0  0  0  0  0  0
    4.4019    2.3960   18.8198 H   0  0  0  0  0  0  0  0  0  0  0  0
  1  2  1  0  0  0  0
  2  3  2  0  0  0  0
  2  4  1  0  0  0  0
  3  5  1  0  0  0  0
  3  6  1  0  0  0  0
  4  7  2  0  0  0  0
  6  8  2  0  0  0  0
  7  9  1  0  0  0  0
  8 10  1  0  0  0  0
  9 11  1  0  0  0  0
 10 12  1  0  0  0  0
 10 13  1  0  0  0  0
 13 14  1  0  0  0  0
 14 15  2  0  0  0  0
 14 16  1  0  0  0  0
 16 17  1  0  0  0  0
 16 18  1  0  0  0  0
 17 19  1  0  0  0  0
 18 20  1  0  0  0  0
 19 21  1  0  0  0  0
 21 22  2  0  0  0  0
 21 23  1  0  0  0  0
 23 24  1  0  0  0  0
 24 25  2  0  0  0  0
 24 26  1  0  0  0  0
 25 27  1  0  0  0  0
 26 28  2  0  0  0  0
 27 29  2  0  0  0  0
 29 30  1  0  0  0  0
  7  8  1  0  0  0  0
 11 12  1  0  0  0  0
 19 20  1  0  0  0  0
 28 29  1  0  0  0  0
  4 31  1  0  0  0  0
  6 32  1  0  0  0  0
 10 33  1  0  0  0  0
 11 34  1  0  0  0  0
 11 35  1  0  0  0  0
 12 36  1  0  0  0  0
 12 37  1  0  0  0  0
 13 38  1  0  0  0  0
 13 39  1  0  0  0  0
 17 40  1  0  0  0  0
 17 41  1  0  0  0  0
 18 42  1  0  0  0  0
 18 43  1  0  0  0  0
 19 44  1  0  0  0  0
 20 45  1  0  0  0  0
 20 46  1  0  0  0  0
 23 47  1  0  0  0  0
 25 48  1  0  0  0  0
 26 49  1  0  0  0  0
 28 50  1  0  0  0  0
M  END
> <BIOSOLVEIT.HYDE_ESTIMATED_AFFINITY_LOWER_BOUNDARY [nM]>
2138067.772209

> <BIOSOLVEIT.HYDE_ESTIMATED_AFFINITY_UPPER_BOUNDARY [nM]>
212429674.426089

> <BIOSOLVEIT.HYDE_LIGAND_EFFICIENCY range: ++, +, 0, -, -->
--

> <BIOSOLVEIT.HYDE_LIGAND_LIPOPHILIC_EFFICIENCY range: ++, +, 0, -, -->
--

> <BIOSOLVEIT.INTER_CLASH range: red, yellow, green>
yellow

> <BIOSOLVEIT.INTRA_CLASH range: red, yellow, green>
green

> <BIOSOLVEIT.LOGP>
4.2709

> <BIOSOLVEIT.MOLECULAR WEIGHT>
452.311

> <BIOSOLVEIT.MOLECULE_CHECKSUM>
LTkuNTQwMjY7MC4zMTgwMDk=

> <BIOSOLVEIT.TORSION_QUALITY range: red, yellow, green, not rotatable>
red

> <BIOSOLVEIT.TPSA>
71.53

> <BIOSOLVEIT.SEESAR_FAVORITE>
favorite

> <smc_score>
0.75

> <QED_score>
0.704

> <distance>
0.615

> <SimilarityPheSA_1>
0.645

> <Smiles>
O=C(Nc1ccc(F)nc1)C1CCN(C(=O)CC2CCOc3cc(Cl)c(Cl)cc32)C1

> <Similarity_SkelSpheres>
0.696

> <Cluster No>
374.0

> <QueryID>
MAR-UCB-f313ec4d-2

> <SimilarityPheSA>
0.6447

> <Postera series>
None

> <PDB_code>
Mpro-x11813

> <Approach>
DGM_focussed_RL

> <ID>
20210618_671

> <SimilarityPheSA_2>
0.633

> <OPTIBRIUM.logD>
3.09117

> <OPTIBRIUM.BBB category>
-

> <OPTIBRIUM.logP>
3.09117

> <OPTIBRIUM.P-gp category>
yes

> <OPTIBRIUM.logS>
1.04293

> <OPTIBRIUM.HIA category>
+

> <OPTIBRIUM.PPB90 category>
high

> <OPTIBRIUM.2D6 affinity category>
high

> <OPTIBRIUM.hERG pIC50>
5.23017

> <OPTIBRIUM.2C9 pKi>
5.85779

> <OPTIBRIUM.BBB log([brain]:[blood])>
-0.639822

> <OPTIBRIUM.logS @ pH7.4>
1.04293

$$$$
Compound 377_1_05
haSeeSAR  07122111353D 1   1.00000     0.00000     0
SeeSAR 11.0.2 hazemaj
 46 49  0  0  0  0            999 V2000
    4.6201    6.6174   26.9508 Cl  0  0  0  0  0  0  0  0  0  0  0  0
    5.6660    5.9876   25.6549 C   0  0  0  0  0  0  0  0  0  0  0  0
    5.7987    4.6144   25.5038 C   0  0  0  0  0  0  0  0  0  0  0  0
    6.3493    6.8398   24.7936 C   0  0  0  0  0  0  0  0  0  0  0  0
    5.1237    3.8113   26.3559 O   0  0  0  0  0  0  0  0  0  0  0  0
    6.6150    4.1180   24.4892 C   0  0  0  0  0  0  0  0  0  0  0  0
    6.1620    8.5957   25.0190 Cl  0  0  0  0  0  0  0  0  0  0  0  0
    7.1480    6.2992   23.7893 C   0  0  0  0  0  0  0  0  0  0  0  0
    3.8339    3.3306   26.0072 C   0  0  0  0  0  0  0  0  0  0  0  0
    7.2970    4.9247   23.6108 C   0  0  0  0  0  0  0  0  0  0  0  0
    6.9574    2.6946   24.0960 C   0  0  1  0  0  0  0  0  0  0  0  0
    7.9848    4.1900   22.7100 O   0  0  0  0  0  0  0  0  0  0  0  0
    8.1590    2.8707   23.1906 C   0  0  2  0  0  0  0  0  0  0  0  0
    7.2452    1.7679   25.2685 C   0  0  0  0  0  0  0  0  0  0  0  0
    8.1337    1.8438   22.0710 C   0  0  0  0  0  0  0  0  0  0  0  0
    8.6932    2.0853   21.0015 O   0  0  0  0  0  0  0  0  0  0  0  0
    7.5102    0.6900   22.2456 N   0  0  0  0  0  0  0  0  0  0  0  0
    7.4857   -0.3036   21.1625 C   0  0  0  0  0  0  0  0  0  0  0  0
    6.7576    0.2761   19.9589 C   0  0  0  0  0  0  0  0  0  0  0  0
    5.5378    0.9439   20.0605 C   0  0  0  0  0  0  0  0  0  0  0  0
    7.3442    0.1280   18.7059 C   0  0  0  0  0  0  0  0  0  0  0  0
    4.9340    1.4457   18.9118 C   0  0  0  0  0  0  0  0  0  0  0  0
    4.8915    1.1297   21.2809 C   0  0  0  0  0  0  0  0  0  0  0  0
    6.7442    0.6204   17.6119 N   0  0  0  0  0  0  0  0  0  0  0  0
    5.5707    1.2655   17.6881 C   0  0  0  0  0  0  0  0  0  0  0  0
    3.7176    2.1162   18.9847 C   0  0  0  0  0  0  0  0  0  0  0  0
    3.6748    1.7965   21.3768 C   0  0  0  0  0  0  0  0  0  0  0  0
    3.0914    2.2900   20.2144 C   0  0  0  0  0  0  0  0  0  0  0  0
    7.6327    6.9199   23.1731 H   0  0  0  0  0  0  0  0  0  0  0  0
    3.4819    2.7552   26.7454 H   0  0  0  0  0  0  0  0  0  0  0  0
    3.2170    4.1046   25.8648 H   0  0  0  0  0  0  0  0  0  0  0  0
    3.8945    2.7935   25.1658 H   0  0  0  0  0  0  0  0  0  0  0  0
    6.2018    2.3158   23.5615 H   0  0  0  0  0  0  0  0  0  0  0  0
    9.0073    2.7974   23.7150 H   0  0  0  0  0  0  0  0  0  0  0  0
    7.4609    0.8536   24.9255 H   0  0  0  0  0  0  0  0  0  0  0  0
    8.0226    2.1206   25.7892 H   0  0  0  0  0  0  0  0  0  0  0  0
    6.4411    1.7204   25.8611 H   0  0  0  0  0  0  0  0  0  0  0  0
    7.0557    0.4938   23.1145 H   0  0  0  0  0  0  0  0  0  0  0  0
    7.0104   -1.1259   21.4753 H   0  0  0  0  0  0  0  0  0  0  0  0
    8.4228   -0.5381   20.9041 H   0  0  0  0  0  0  0  0  0  0  0  0
    8.2190   -0.3488   18.6204 H   0  0  0  0  0  0  0  0  0  0  0  0
    5.3154    0.7725   22.1133 H   0  0  0  0  0  0  0  0  0  0  0  0
    5.1481    1.6215   16.8545 H   0  0  0  0  0  0  0  0  0  0  0  0
    3.2931    2.4734   18.1527 H   0  0  0  0  0  0  0  0  0  0  0  0
    3.2285    1.9189   22.2634 H   0  0  0  0  0  0  0  0  0  0  0  0
    2.2168    2.7723   20.2631 H   0  0  0  0  0  0  0  0  0  0  0  0
  1  2  1  0  0  0  0
  2  3  2  0  0  0  0
  2  4  1  0  0  0  0
  3  5  1  0  0  0  0
  3  6  1  0  0  0  0
  4  7  1  0  0  0  0
  4  8  2  0  0  0  0
  5  9  1  0  0  0  0
  6 10  2  0  0  0  0
  6 11  1  0  0  0  0
 10 12  1  0  0  0  0
 11 13  1  0  0  0  0
 11 14  1  0  0  0  0
 13 15  1  0  0  0  0
 15 16  2  0  0  0  0
 15 17  1  0  0  0  0
 17 18  1  0  0  0  0
 18 19  1  0  0  0  0
 19 20  1  0  0  0  0
 19 21  2  0  0  0  0
 20 22  1  0  0  0  0
 20 23  2  0  0  0  0
 21 24  1  0  0  0  0
 22 25  1  0  0  0  0
 22 26  2  0  0  0  0
 23 27  1  0  0  0  0
 26 28  1  0  0  0  0
  8 10  1  0  0  0  0
 12 13  1  0  0  0  0
 24 25  2  0  0  0  0
 27 28  2  0  0  0  0
  8 29  1  0  0  0  0
  9 30  1  0  0  0  0
  9 31  1  0  0  0  0
  9 32  1  0  0  0  0
 11 33  1  0  0  0  0
 13 34  1  0  0  0  0
 14 35  1  0  0  0  0
 14 36  1  0  0  0  0
 14 37  1  0  0  0  0
 17 38  1  0  0  0  0
 18 39  1  0  0  0  0
 18 40  1  0  0  0  0
 21 41  1  0  0  0  0
 23 42  1  0  0  0  0
 25 43  1  0  0  0  0
 26 44  1  0  0  0  0
 27 45  1  0  0  0  0
 28 46  1  0  0  0  0
M  END
> <BIOSOLVEIT.HYDE_ESTIMATED_AFFINITY_LOWER_BOUNDARY [nM]>
2187066.128387

> <BIOSOLVEIT.HYDE_ESTIMATED_AFFINITY_UPPER_BOUNDARY [nM]>
217297950.813543

> <BIOSOLVEIT.HYDE_LIGAND_EFFICIENCY range: ++, +, 0, -, -->
--

> <BIOSOLVEIT.HYDE_LIGAND_LIPOPHILIC_EFFICIENCY range: ++, +, 0, -, -->
--

> <BIOSOLVEIT.INTER_CLASH range: red, yellow, green>
green

> <BIOSOLVEIT.INTRA_CLASH range: red, yellow, green>
yellow

> <BIOSOLVEIT.LOGP>
4.7311

> <BIOSOLVEIT.MOLECULAR WEIGHT>
417.29

> <BIOSOLVEIT.MOLECULE_CHECKSUM>
LTkuNDg0MDk7MC4zMzg3MTg=

> <BIOSOLVEIT.TORSION_QUALITY range: red, yellow, green, not rotatable>
green

> <BIOSOLVEIT.TPSA>
60.45

> <BIOSOLVEIT.SEESAR_FAVORITE>
favorite

> <smc_score>
0.813

> <QED_score>
0.667

> <distance>
0.595

> <SimilarityPheSA_1>
0.641

> <Smiles>
COc1c(Cl)c(Cl)cc2c1C(C)C(C(=O)NCc1cncc3ccccc13)O2

> <Similarity_SkelSpheres>
0.749

> <Cluster No>
191.0

> <QueryID>
JAN-GHE-5a013bed-2

> <SimilarityPheSA>
0.6409

> <Postera series>
3-aminopyridine-like

> <PDB_code>
Mpro-x10466

> <Approach>
DGM_focussed_RL

> <ID>
20210618_376

> <SimilarityPheSA_2>
0.72

> <OPTIBRIUM.logD>
4.49267

> <OPTIBRIUM.BBB category>
-

> <OPTIBRIUM.logP>
4.49267

> <OPTIBRIUM.P-gp category>
no

> <OPTIBRIUM.logS>
-0.374012

> <OPTIBRIUM.HIA category>
+

> <OPTIBRIUM.PPB90 category>
high

> <OPTIBRIUM.2D6 affinity category>
high

> <OPTIBRIUM.hERG pIC50>
4.67383

> <OPTIBRIUM.2C9 pKi>
5.94949

> <OPTIBRIUM.BBB log([brain]:[blood])>
-0.450526

> <OPTIBRIUM.logS @ pH7.4>
-0.374012

$$$$
Compound 1478_1_010
haSeeSAR  07122111353D 1   1.00000     0.00000     0
SeeSAR 11.0.2 hazemaj
 50 53  0  0  0  0            999 V2000
    9.1059   -1.2992   28.9848 Cl  0  0  0  0  0  0  0  0  0  0  0  0
    8.6856   -1.4103   27.2583 C   0  0  0  0  0  0  0  0  0  0  0  0
    8.1849   -2.5995   26.7394 C   0  0  0  0  0  0  0  0  0  0  0  0
    8.8608   -0.3003   26.4399 C   0  0  0  0  0  0  0  0  0  0  0  0
    7.9709   -4.0064   27.8084 Cl  0  0  0  0  0  0  0  0  0  0  0  0
    7.8517   -2.6968   25.3922 C   0  0  0  0  0  0  0  0  0  0  0  0
    8.5266   -0.4033   25.0942 C   0  0  0  0  0  0  0  0  0  0  0  0
    8.0261   -1.5896   24.5685 C   0  0  0  0  0  0  0  0  0  0  0  0
    8.7112    0.8006   24.1845 C   0  0  0  0  0  0  0  0  0  0  0  0
    9.5222    0.4155   23.0206 N   0  0  0  0  0  0  0  0  0  0  0  0
    9.0277    0.5388   21.7996 C   0  0  0  0  0  0  0  0  0  0  0  0
   10.8826   -0.1064   23.2131 C   0  0  0  0  0  0  0  0  0  0  0  0
    9.3857    1.4724   21.0818 O   0  0  0  0  0  0  0  0  0  0  0  0
    8.0172   -0.4726   21.2834 C   0  0  0  0  0  0  0  0  0  0  0  0
   11.9258    0.9849   23.0855 C   0  0  0  0  0  0  0  0  0  0  0  0
   11.2921   -1.0247   22.0772 C   0  0  0  0  0  0  0  0  0  0  0  0
    7.2452    0.1306   20.1203 C   0  0  0  0  0  0  0  0  0  0  0  0
   13.2208    0.2347   22.8412 C   0  0  0  0  0  0  0  0  0  0  0  0
   12.8074   -1.0681   22.1892 C   0  0  0  0  0  0  0  0  0  0  0  0
    7.7008   -0.0924   18.9008 N   0  0  0  0  0  0  0  0  0  0  0  0
    6.0701    0.9127   20.3094 C   0  0  0  0  0  0  0  0  0  0  0  0
    7.0997    0.3920   17.8275 N   0  0  0  0  0  0  0  0  0  0  0  0
    5.4186    1.4312   19.1953 C   0  0  0  0  0  0  0  0  0  0  0  0
    5.5438    1.1809   21.5702 C   0  0  0  0  0  0  0  0  0  0  0  0
    5.9645    1.1534   17.9115 C   0  0  0  0  0  0  0  0  0  0  0  0
    4.2683    2.1976   19.3672 C   0  0  0  0  0  0  0  0  0  0  0  0
    4.3955    1.9461   21.7354 C   0  0  0  0  0  0  0  0  0  0  0  0
    5.4633    1.5669   16.8766 O   0  0  0  0  0  0  0  0  0  0  0  0
    3.7406    2.4659   20.6248 C   0  0  0  0  0  0  0  0  0  0  0  0
    3.9235    2.1799   22.9551 F   0  0  0  0  0  0  0  0  0  0  0  0
    9.2202    0.5556   26.8118 H   0  0  0  0  0  0  0  0  0  0  0  0
    7.4912   -3.5522   25.0203 H   0  0  0  0  0  0  0  0  0  0  0  0
    7.7916   -1.6466   23.5981 H   0  0  0  0  0  0  0  0  0  0  0  0
    9.1749    1.5303   24.6871 H   0  0  0  0  0  0  0  0  0  0  0  0
    7.8173    1.1250   23.8753 H   0  0  0  0  0  0  0  0  0  0  0  0
   10.9626   -0.5733   24.0938 H   0  0  0  0  0  0  0  0  0  0  0  0
    7.3813   -0.7127   22.0168 H   0  0  0  0  0  0  0  0  0  0  0  0
    8.4961   -1.2947   20.9752 H   0  0  0  0  0  0  0  0  0  0  0  0
   11.9808    1.5230   23.9266 H   0  0  0  0  0  0  0  0  0  0  0  0
   11.7152    1.5888   22.3168 H   0  0  0  0  0  0  0  0  0  0  0  0
   11.0090   -0.6500   21.1944 H   0  0  0  0  0  0  0  0  0  0  0  0
   10.8982   -1.9363   22.1942 H   0  0  0  0  0  0  0  0  0  0  0  0
   13.6933    0.0601   23.7051 H   0  0  0  0  0  0  0  0  0  0  0  0
   13.8192    0.7567   22.2334 H   0  0  0  0  0  0  0  0  0  0  0  0
   13.2199   -1.1478   21.2817 H   0  0  0  0  0  0  0  0  0  0  0  0
   13.0912   -1.8434   22.7535 H   0  0  0  0  0  0  0  0  0  0  0  0
    7.4861    0.1963   16.9261 H   0  0  0  0  0  0  0  0  0  0  0  0
    6.0042    0.8132   22.3781 H   0  0  0  0  0  0  0  0  0  0  0  0
    3.8074    2.5666   18.5602 H   0  0  0  0  0  0  0  0  0  0  0  0
    2.9129    3.0176   20.7278 H   0  0  0  0  0  0  0  0  0  0  0  0
  1  2  1  0  0  0  0
  2  3  2  0  0  0  0
  2  4  1  0  0  0  0
  3  5  1  0  0  0  0
  3  6  1  0  0  0  0
  4  7  2  0  0  0  0
  6  8  2  0  0  0  0
  7  9  1  0  0  0  0
  9 10  1  0  0  0  0
 10 11  1  0  0  0  0
 10 12  1  0  0  0  0
 11 13  2  0  0  0  0
 11 14  1  0  0  0  0
 12 15  1  0  0  0  0
 12 16  1  0  0  0  0
 14 17  1  0  0  0  0
 15 18  1  0  0  0  0
 16 19  1  0  0  0  0
 17 20  2  0  0  0  0
 17 21  1  0  0  0  0
 20 22  1  0  0  0  0
 21 23  2  0  0  0  0
 21 24  1  0  0  0  0
 22 25  1  0  0  0  0
 23 26  1  0  0  0  0
 24 27  2  0  0  0  0
 25 28  2  0  0  0  0
 26 29  2  0  0  0  0
 27 30  1  0  0  0  0
  7  8  1  0  0  0  0
 18 19  1  0  0  0  0
 23 25  1  0  0  0  0
 27 29  1  0  0  0  0
  4 31  1  0  0  0  0
  6 32  1  0  0  0  0
  8 33  1  0  0  0  0
  9 34  1  0  0  0  0
  9 35  1  0  0  0  0
 12 36  1  0  0  0  0
 14 37  1  0  0  0  0
 14 38  1  0  0  0  0
 15 39  1  0  0  0  0
 15 40  1  0  0  0  0
 16 41  1  0  0  0  0
 16 42  1  0  0  0  0
 18 43  1  0  0  0  0
 18 44  1  0  0  0  0
 19 45  1  0  0  0  0
 19 46  1  0  0  0  0
 22 47  1  0  0  0  0
 24 48  1  0  0  0  0
 26 49  1  0  0  0  0
 29 50  1  0  0  0  0
M  END
> <BIOSOLVEIT.HYDE_ESTIMATED_AFFINITY_LOWER_BOUNDARY [nM]>
9370254.253656

> <BIOSOLVEIT.HYDE_ESTIMATED_AFFINITY_UPPER_BOUNDARY [nM]>
930990161.428367

> <BIOSOLVEIT.HYDE_LIGAND_EFFICIENCY range: ++, +, 0, -, -->
--

> <BIOSOLVEIT.HYDE_LIGAND_LIPOPHILIC_EFFICIENCY range: ++, +, 0, -, -->
--

> <BIOSOLVEIT.INTER_CLASH range: red, yellow, green>
green

> <BIOSOLVEIT.INTRA_CLASH range: red, yellow, green>
green

> <BIOSOLVEIT.LOGP>
4.8829

> <BIOSOLVEIT.MOLECULAR WEIGHT>
448.323

> <BIOSOLVEIT.MOLECULE_CHECKSUM>
LTUuODc3MjY7MC4xOTU5MDk=

> <BIOSOLVEIT.TORSION_QUALITY range: red, yellow, green, not rotatable>
yellow

> <BIOSOLVEIT.TPSA>
66.06

> <BIOSOLVEIT.SEESAR_FAVORITE>
favorite

> <smc_score>
0.75

> <QED_score>
0.605

> <distance>
0.738

> <SimilarityPheSA_1>
0.637

> <Smiles>
O=C(Cc1n[nH]c(=O)c2ccc(F)cc12)N(Cc1ccc(Cl)c(Cl)c1)C1CCCC1

> <Similarity_SkelSpheres>
0.604

> <Cluster No>
330.0

> <QueryID>
CHO-MSK-00c5269a-2

> <SimilarityPheSA>
0.6366

> <Postera series>
3-aminopyridine-like

> <PDB_code>
Mpro-x12177

> <Approach>
DGM_exploratory_RL

> <ID>
20210628_748

> <SimilarityPheSA_2>
0.68

> <OPTIBRIUM.logD>
4.17741

> <OPTIBRIUM.BBB category>
-

> <OPTIBRIUM.logP>
4.17741

> <OPTIBRIUM.P-gp category>
yes

> <OPTIBRIUM.logS>
0.118412

> <OPTIBRIUM.HIA category>
+

> <OPTIBRIUM.PPB90 category>
high

> <OPTIBRIUM.2D6 affinity category>
high

> <OPTIBRIUM.hERG pIC50>
6.00867

> <OPTIBRIUM.2C9 pKi>
5.31428

> <OPTIBRIUM.BBB log([brain]:[blood])>
-1.15394

> <OPTIBRIUM.logS @ pH7.4>
0.118412

$$$$
Compound 672_1_009
haSeeSAR  07122111353D 1   1.00000     0.00000     0
SeeSAR 11.0.2 hazemaj
 50 53  0  0  0  0            999 V2000
    4.1730    0.0152   27.6435 Cl  0  0  0  0  0  0  0  0  0  0  0  0
    5.1740   -1.3435   27.0747 C   0  0  0  0  0  0  0  0  0  0  0  0
    6.5522   -1.1770   26.9862 C   0  0  0  0  0  0  0  0  0  0  0  0
    4.6196   -2.5681   26.7179 C   0  0  0  0  0  0  0  0  0  0  0  0
    7.3142    0.3681   27.4333 Cl  0  0  0  0  0  0  0  0  0  0  0  0
    7.3526   -2.2248   26.5430 C   0  0  0  0  0  0  0  0  0  0  0  0
    5.3933   -3.6389   26.2842 C   0  0  0  0  0  0  0  0  0  0  0  0
    6.7651   -3.4383   26.1954 C   0  0  0  0  0  0  0  0  0  0  0  0
    4.8808   -4.8554   25.9711 O   0  0  0  0  0  0  0  0  0  0  0  0
    7.6928   -4.5381   25.7005 C   0  0  1  0  0  0  0  0  0  0  0  0
    5.5772   -5.8448   25.2277 C   0  0  0  0  0  0  0  0  0  0  0  0
    6.9998   -5.8943   25.7629 C   0  0  0  0  0  0  0  0  0  0  0  0
    8.1309   -4.2990   24.2661 C   0  0  0  0  0  0  0  0  0  0  0  0
    9.4075   -3.4740   24.2572 C   0  0  0  0  0  0  0  0  0  0  0  0
   10.3867   -3.8481   24.9024 O   0  0  0  0  0  0  0  0  0  0  0  0
    9.4694   -2.2903   23.5161 N   0  0  0  0  0  0  0  0  0  0  0  0
    8.4118   -1.2828   23.4561 C   0  0  0  0  0  0  0  0  0  0  0  0
   10.6025   -1.8633   22.6995 C   0  0  0  0  0  0  0  0  0  0  0  0
    9.1203    0.0017   23.0668 C   0  0  1  0  0  0  0  0  0  0  0  0
   10.5906   -0.3771   22.9776 C   0  0  0  0  0  0  0  0  0  0  0  0
    8.5668    0.4882   21.7374 C   0  0  0  0  0  0  0  0  0  0  0  0
    9.2321    1.2496   21.0352 O   0  0  0  0  0  0  0  0  0  0  0  0
    7.3700    0.0934   21.3348 N   0  0  0  0  0  0  0  0  0  0  0  0
    6.8594    0.5422   20.1087 C   0  0  0  0  0  0  0  0  0  0  0  0
    7.4469    0.1943   18.8962 C   0  0  0  0  0  0  0  0  0  0  0  0
    5.7348    1.3591   20.0818 C   0  0  0  0  0  0  0  0  0  0  0  0
    6.9437    0.6331   17.7320 N   0  0  0  0  0  0  0  0  0  0  0  0
    5.2256    1.8042   18.8651 C   0  0  0  0  0  0  0  0  0  0  0  0
    5.8576    1.4202   17.6867 C   0  0  0  0  0  0  0  0  0  0  0  0
    5.3599    1.8531   16.5331 F   0  0  0  0  0  0  0  0  0  0  0  0
    3.6279   -2.6828   26.7753 H   0  0  0  0  0  0  0  0  0  0  0  0
    8.3433   -2.1073   26.4746 H   0  0  0  0  0  0  0  0  0  0  0  0
    8.5036   -4.5632   26.2853 H   0  0  0  0  0  0  0  0  0  0  0  0
    5.5847   -5.6018   24.2578 H   0  0  0  0  0  0  0  0  0  0  0  0
    5.1363   -6.7345   25.3451 H   0  0  0  0  0  0  0  0  0  0  0  0
    6.9739   -6.1981   26.7153 H   0  0  0  0  0  0  0  0  0  0  0  0
    7.5248   -6.5485   25.2185 H   0  0  0  0  0  0  0  0  0  0  0  0
    7.4121   -3.8063   23.7757 H   0  0  0  0  0  0  0  0  0  0  0  0
    8.2985   -5.1772   23.8181 H   0  0  0  0  0  0  0  0  0  0  0  0
    7.9685   -1.1843   24.3470 H   0  0  0  0  0  0  0  0  0  0  0  0
    7.7286   -1.5301   22.7692 H   0  0  0  0  0  0  0  0  0  0  0  0
   10.4547   -2.0596   21.7301 H   0  0  0  0  0  0  0  0  0  0  0  0
   11.4561   -2.2891   22.9995 H   0  0  0  0  0  0  0  0  0  0  0  0
    8.9854    0.6976   23.7722 H   0  0  0  0  0  0  0  0  0  0  0  0
   11.0366    0.1221   22.2346 H   0  0  0  0  0  0  0  0  0  0  0  0
   11.0567   -0.1782   23.8397 H   0  0  0  0  0  0  0  0  0  0  0  0
    6.8294   -0.5251   21.9052 H   0  0  0  0  0  0  0  0  0  0  0  0
    8.2570   -0.3919   18.8922 H   0  0  0  0  0  0  0  0  0  0  0  0
    5.2914    1.6272   20.9371 H   0  0  0  0  0  0  0  0  0  0  0  0
    4.4170    2.3920   18.8385 H   0  0  0  0  0  0  0  0  0  0  0  0
  1  2  1  0  0  0  0
  2  3  2  0  0  0  0
  2  4  1  0  0  0  0
  3  5  1  0  0  0  0
  3  6  1  0  0  0  0
  4  7  2  0  0  0  0
  6  8  2  0  0  0  0
  7  9  1  0  0  0  0
  8 10  1  0  0  0  0
  9 11  1  0  0  0  0
 10 12  1  0  0  0  0
 10 13  1  0  0  0  0
 13 14  1  0  0  0  0
 14 15  2  0  0  0  0
 14 16  1  0  0  0  0
 16 17  1  0  0  0  0
 16 18  1  0  0  0  0
 17 19  1  0  0  0  0
 18 20  1  0  0  0  0
 19 21  1  0  0  0  0
 21 22  2  0  0  0  0
 21 23  1  0  0  0  0
 23 24  1  0  0  0  0
 24 25  2  0  0  0  0
 24 26  1  0  0  0  0
 25 27  1  0  0  0  0
 26 28  2  0  0  0  0
 27 29  2  0  0  0  0
 29 30  1  0  0  0  0
  7  8  1  0  0  0  0
 11 12  1  0  0  0  0
 19 20  1  0  0  0  0
 28 29  1  0  0  0  0
  4 31  1  0  0  0  0
  6 32  1  0  0  0  0
 10 33  1  0  0  0  0
 11 34  1  0  0  0  0
 11 35  1  0  0  0  0
 12 36  1  0  0  0  0
 12 37  1  0  0  0  0
 13 38  1  0  0  0  0
 13 39  1  0  0  0  0
 17 40  1  0  0  0  0
 17 41  1  0  0  0  0
 18 42  1  0  0  0  0
 18 43  1  0  0  0  0
 19 44  1  0  0  0  0
 20 45  1  0  0  0  0
 20 46  1  0  0  0  0
 23 47  1  0  0  0  0
 25 48  1  0  0  0  0
 26 49  1  0  0  0  0
 28 50  1  0  0  0  0
M  END
> <BIOSOLVEIT.HYDE_ESTIMATED_AFFINITY_LOWER_BOUNDARY [nM]>
9988760.866395

> <BIOSOLVEIT.HYDE_ESTIMATED_AFFINITY_UPPER_BOUNDARY [nM]>
992442450.304495

> <BIOSOLVEIT.HYDE_LIGAND_EFFICIENCY range: ++, +, 0, -, -->
--

> <BIOSOLVEIT.HYDE_LIGAND_LIPOPHILIC_EFFICIENCY range: ++, +, 0, -, -->
--

> <BIOSOLVEIT.INTER_CLASH range: red, yellow, green>
yellow

> <BIOSOLVEIT.INTRA_CLASH range: red, yellow, green>
green

> <BIOSOLVEIT.LOGP>
4.2709

> <BIOSOLVEIT.MOLECULAR WEIGHT>
452.311

> <BIOSOLVEIT.MOLECULE_CHECKSUM>
LTUuNzE4ODE7MC4xOTA2Mjc=

> <BIOSOLVEIT.TORSION_QUALITY range: red, yellow, green, not rotatable>
red

> <BIOSOLVEIT.TPSA>
71.53

> <BIOSOLVEIT.SEESAR_FAVORITE>
favorite

> <smc_score>
0.75

> <QED_score>
0.704

> <distance>
0.615

> <SimilarityPheSA_1>
0.645

> <Smiles>
O=C(Nc1ccc(F)nc1)C1CCN(C(=O)CC2CCOc3cc(Cl)c(Cl)cc32)C1

> <Similarity_SkelSpheres>
0.696

> <Cluster No>
374.0

> <QueryID>
MAR-UCB-f313ec4d-2

> <SimilarityPheSA>
0.6447

> <Postera series>
None

> <PDB_code>
Mpro-x11813

> <Approach>
DGM_focussed_RL

> <ID>
20210618_671

> <SimilarityPheSA_2>
0.633

> <OPTIBRIUM.logD>
3.09117

> <OPTIBRIUM.BBB category>
-

> <OPTIBRIUM.logP>
3.09117

> <OPTIBRIUM.P-gp category>
yes

> <OPTIBRIUM.logS>
1.04293

> <OPTIBRIUM.HIA category>
+

> <OPTIBRIUM.PPB90 category>
high

> <OPTIBRIUM.2D6 affinity category>
high

> <OPTIBRIUM.hERG pIC50>
5.23017

> <OPTIBRIUM.2C9 pKi>
5.85779

> <OPTIBRIUM.BBB log([brain]:[blood])>
-0.639822

> <OPTIBRIUM.logS @ pH7.4>
1.04293

$$$$
Compound 83_1_10
haSeeSAR  07122111353D 1   1.00000     0.00000     0
SeeSAR 11.0.2 hazemaj
 43 46  0  0  0  0            999 V2000
   10.5193    6.1659   23.1358 Cl  0  0  0  0  0  0  0  0  0  0  0  0
    9.9677    4.4806   23.2977 C   0  0  0  0  0  0  0  0  0  0  0  0
    8.6861    4.2033   23.7645 C   0  0  0  0  0  0  0  0  0  0  0  0
   10.8059    3.4222   22.9587 C   0  0  0  0  0  0  0  0  0  0  0  0
    7.5748    5.5233   24.2010 Cl  0  0  0  0  0  0  0  0  0  0  0  0
    8.2397    2.8942   23.8992 C   0  0  0  0  0  0  0  0  0  0  0  0
   10.3808    2.0985   23.0718 C   0  0  0  0  0  0  0  0  0  0  0  0
    9.0930    1.8596   23.5357 C   0  0  0  0  0  0  0  0  0  0  0  0
   11.1510    1.0270   22.7549 O   0  0  0  0  0  0  0  0  0  0  0  0
    8.6055    0.4246   23.6420 C   0  0  0  0  0  0  0  0  0  0  0  0
   10.6250   -0.2009   22.2507 C   0  0  0  0  0  0  0  0  0  0  0  0
    9.1166   -0.3363   22.4271 C   0  0  2  0  0  0  0  0  0  0  0  0
    8.3963    0.1021   21.1622 C   0  0  0  0  0  0  0  0  0  0  0  0
    8.8044   -1.8107   22.6224 C   0  0  0  0  0  0  0  0  0  0  0  0
    8.9802    0.7971   20.3308 O   0  0  0  0  0  0  0  0  0  0  0  0
    7.1417   -0.2633   20.9550 N   0  0  0  0  0  0  0  0  0  0  0  0
    6.4778    0.1407   19.7893 C   0  0  0  0  0  0  0  0  0  0  0  0
    5.4070    1.0106   19.8907 C   0  0  0  0  0  0  0  0  0  0  0  0
    6.8753   -0.3109   18.5343 C   0  0  0  0  0  0  0  0  0  0  0  0
    4.7555    1.3867   18.7340 C   0  0  0  0  0  0  0  0  0  0  0  0
    4.7561    1.6953   21.0724 C   0  0  0  0  0  0  0  0  0  0  0  0
    6.2170    0.0907   17.4353 N   0  0  0  0  0  0  0  0  0  0  0  0
    5.1686    0.9243   17.4875 C   0  0  0  0  0  0  0  0  0  0  0  0
    3.6339    2.3341   19.1169 C   0  0  0  0  0  0  0  0  0  0  0  0
    3.3578    1.9864   20.5638 C   0  0  0  0  0  0  0  0  0  0  0  0
   11.7299    3.6143   22.6281 H   0  0  0  0  0  0  0  0  0  0  0  0
    7.3235    2.7009   24.2503 H   0  0  0  0  0  0  0  0  0  0  0  0
    7.6059    0.4060   23.6583 H   0  0  0  0  0  0  0  0  0  0  0  0
    8.9604    0.0066   24.4783 H   0  0  0  0  0  0  0  0  0  0  0  0
   11.0688   -0.9566   22.7324 H   0  0  0  0  0  0  0  0  0  0  0  0
   10.8357   -0.2581   21.2748 H   0  0  0  0  0  0  0  0  0  0  0  0
    9.1333   -2.3285   21.8326 H   0  0  0  0  0  0  0  0  0  0  0  0
    9.2583   -2.1408   23.4499 H   0  0  0  0  0  0  0  0  0  0  0  0
    7.8160   -1.9328   22.7129 H   0  0  0  0  0  0  0  0  0  0  0  0
    6.6674   -0.8280   21.6306 H   0  0  0  0  0  0  0  0  0  0  0  0
    7.6522   -0.9350   18.4510 H   0  0  0  0  0  0  0  0  0  0  0  0
    5.2364    2.5399   21.3087 H   0  0  0  0  0  0  0  0  0  0  0  0
    4.7310    1.0918   21.8693 H   0  0  0  0  0  0  0  0  0  0  0  0
    4.6956    1.2066   16.6529 H   0  0  0  0  0  0  0  0  0  0  0  0
    2.8246    2.1776   18.5508 H   0  0  0  0  0  0  0  0  0  0  0  0
    3.9243    3.2868   19.0273 H   0  0  0  0  0  0  0  0  0  0  0  0
    2.9433    2.7543   21.0521 H   0  0  0  0  0  0  0  0  0  0  0  0
    2.7661    1.1839   20.6408 H   0  0  0  0  0  0  0  0  0  0  0  0
  1  2  1  0  0  0  0
  2  3  2  0  0  0  0
  2  4  1  0  0  0  0
  3  5  1  0  0  0  0
  3  6  1  0  0  0  0
  4  7  2  0  0  0  0
  6  8  2  0  0  0  0
  7  9  1  0  0  0  0
  8 10  1  0  0  0  0
  9 11  1  0  0  0  0
 10 12  1  0  0  0  0
 12 13  1  0  0  0  0
 12 14  1  0  0  0  0
 13 15  2  0  0  0  0
 13 16  1  0  0  0  0
 16 17  1  0  0  0  0
 17 18  2  0  0  0  0
 17 19  1  0  0  0  0
 18 20  1  0  0  0  0
 18 21  1  0  0  0  0
 19 22  2  0  0  0  0
 20 23  2  0  0  0  0
 20 24  1  0  0  0  0
 21 25  1  0  0  0  0
  7  8  1  0  0  0  0
 11 12  1  0  0  0  0
 22 23  1  0  0  0  0
 24 25  1  0  0  0  0
  4 26  1  0  0  0  0
  6 27  1  0  0  0  0
 10 28  1  0  0  0  0
 10 29  1  0  0  0  0
 11 30  1  0  0  0  0
 11 31  1  0  0  0  0
 14 32  1  0  0  0  0
 14 33  1  0  0  0  0
 14 34  1  0  0  0  0
 16 35  1  0  0  0  0
 19 36  1  0  0  0  0
 21 37  1  0  0  0  0
 21 38  1  0  0  0  0
 23 39  1  0  0  0  0
 24 40  1  0  0  0  0
 24 41  1  0  0  0  0
 25 42  1  0  0  0  0
 25 43  1  0  0  0  0
M  END
> <BIOSOLVEIT.HYDE_ESTIMATED_AFFINITY_LOWER_BOUNDARY [nM]>
14700818.043360

> <BIOSOLVEIT.HYDE_ESTIMATED_AFFINITY_UPPER_BOUNDARY [nM]>
1460613190.722930

> <BIOSOLVEIT.HYDE_LIGAND_EFFICIENCY range: ++, +, 0, -, -->
--

> <BIOSOLVEIT.HYDE_LIGAND_LIPOPHILIC_EFFICIENCY range: ++, +, 0, -, -->
--

> <BIOSOLVEIT.INTER_CLASH range: red, yellow, green>
green

> <BIOSOLVEIT.INTRA_CLASH range: red, yellow, green>
green

> <BIOSOLVEIT.LOGP>
4.457

> <BIOSOLVEIT.MOLECULAR WEIGHT>
377.269

> <BIOSOLVEIT.MOLECULE_CHECKSUM>
LTQuNzYwODM7MC4xOTA0MzM=

> <BIOSOLVEIT.TORSION_QUALITY range: red, yellow, green, not rotatable>
green

> <BIOSOLVEIT.TPSA>
51.22

> <BIOSOLVEIT.SEESAR_FAVORITE>
favorite

> <smc_score>
1.0

> <QED_score>
0.841

> <distance>
0.563

> <SimilarityPheSA_1>
0.644

> <Smiles>
CC1(C(=O)Nc2cncc3c2CCC3)COc2cc(Cl)c(Cl)cc2C1

> <Similarity_SkelSpheres>
0.731

> <Cluster No>
36.0

> <QueryID>
EDG-MED-0e5afe9d-3, PET-UNK-29afea89-2

> <SimilarityPheSA>
0.6438

> <Postera series>
3-aminopyridine-like

> <PDB_code>
Mpro-x12699, Mpro-P0157

> <Approach>
DGM_focussed_RL

> <ID>
20210618_82

> <SimilarityPheSA_2>
0.823

> <OPTIBRIUM.logD>
3.93782

> <OPTIBRIUM.BBB category>
+

> <OPTIBRIUM.logP>
3.93782

> <OPTIBRIUM.P-gp category>
no

> <OPTIBRIUM.logS>
1.22213

> <OPTIBRIUM.HIA category>
+

> <OPTIBRIUM.PPB90 category>
high

> <OPTIBRIUM.2D6 affinity category>
medium

> <OPTIBRIUM.hERG pIC50>
4.82225

> <OPTIBRIUM.2C9 pKi>
5.53086

> <OPTIBRIUM.BBB log([brain]:[blood])>
-0.0927702

> <OPTIBRIUM.logS @ pH7.4>
1.22213

$$$$
Compound 83_1_07
haSeeSAR  07122111353D 1   1.00000     0.00000     0
SeeSAR 11.0.2 hazemaj
 43 46  0  0  0  0            999 V2000
   10.5174    6.1707   23.1372 Cl  0  0  0  0  0  0  0  0  0  0  0  0
    9.9664    4.4852   23.2987 C   0  0  0  0  0  0  0  0  0  0  0  0
    8.6851    4.2076   23.7659 C   0  0  0  0  0  0  0  0  0  0  0  0
   10.8047    3.4272   22.9594 C   0  0  0  0  0  0  0  0  0  0  0  0
    7.5735    5.5270   24.2031 Cl  0  0  0  0  0  0  0  0  0  0  0  0
    8.2390    2.8982   23.9004 C   0  0  0  0  0  0  0  0  0  0  0  0
   10.3801    2.1034   23.0722 C   0  0  0  0  0  0  0  0  0  0  0  0
    9.0925    1.8640   23.5364 C   0  0  0  0  0  0  0  0  0  0  0  0
   11.1505    1.0322   22.7548 O   0  0  0  0  0  0  0  0  0  0  0  0
    8.6055    0.4287   23.6426 C   0  0  0  0  0  0  0  0  0  0  0  0
   10.6247   -0.1959   22.2504 C   0  0  0  0  0  0  0  0  0  0  0  0
    9.1165   -0.3317   22.4273 C   0  0  2  0  0  0  0  0  0  0  0  0
    8.3956    0.1068   21.1627 C   0  0  0  0  0  0  0  0  0  0  0  0
    8.8047   -1.8061   22.6222 C   0  0  0  0  0  0  0  0  0  0  0  0
    8.9797    0.8006   20.3304 O   0  0  0  0  0  0  0  0  0  0  0  0
    7.1404   -0.2572   20.9569 N   0  0  0  0  0  0  0  0  0  0  0  0
    6.4760    0.1471   19.7914 C   0  0  0  0  0  0  0  0  0  0  0  0
    5.4029    1.0138   19.8937 C   0  0  0  0  0  0  0  0  0  0  0  0
    6.8754   -0.3014   18.5358 C   0  0  0  0  0  0  0  0  0  0  0  0
    4.7509    1.3901   18.7373 C   0  0  0  0  0  0  0  0  0  0  0  0
    4.7494    1.6948   21.0761 C   0  0  0  0  0  0  0  0  0  0  0  0
    6.2166    0.1001   17.4373 N   0  0  0  0  0  0  0  0  0  0  0  0
    5.1660    0.9308   17.4902 C   0  0  0  0  0  0  0  0  0  0  0  0
    3.6266    2.3338   19.1212 C   0  0  0  0  0  0  0  0  0  0  0  0
    3.3507    1.9830   20.5674 C   0  0  0  0  0  0  0  0  0  0  0  0
   11.7286    3.6198   22.6285 H   0  0  0  0  0  0  0  0  0  0  0  0
    7.3230    2.7046   24.2517 H   0  0  0  0  0  0  0  0  0  0  0  0
    7.6058    0.4098   23.6591 H   0  0  0  0  0  0  0  0  0  0  0  0
    8.9607    0.0107   24.4787 H   0  0  0  0  0  0  0  0  0  0  0  0
   11.0689   -0.9514   22.7319 H   0  0  0  0  0  0  0  0  0  0  0  0
   10.8352   -0.2527   21.2745 H   0  0  0  0  0  0  0  0  0  0  0  0
    9.1335   -2.3237   21.8323 H   0  0  0  0  0  0  0  0  0  0  0  0
    9.2590   -2.1364   23.4496 H   0  0  0  0  0  0  0  0  0  0  0  0
    7.8164   -1.9286   22.7130 H   0  0  0  0  0  0  0  0  0  0  0  0
    6.6659   -0.8207   21.6331 H   0  0  0  0  0  0  0  0  0  0  0  0
    7.6540   -0.9234   18.4520 H   0  0  0  0  0  0  0  0  0  0  0  0
    5.2275    2.5403   21.3141 H   0  0  0  0  0  0  0  0  0  0  0  0
    4.7256    1.0901   21.8721 H   0  0  0  0  0  0  0  0  0  0  0  0
    4.6927    1.2133   16.6559 H   0  0  0  0  0  0  0  0  0  0  0  0
    2.8180    2.1761   18.5544 H   0  0  0  0  0  0  0  0  0  0  0  0
    3.9144    3.2875   19.0332 H   0  0  0  0  0  0  0  0  0  0  0  0
    2.9339    2.7491   21.0566 H   0  0  0  0  0  0  0  0  0  0  0  0
    2.7610    1.1789   20.6427 H   0  0  0  0  0  0  0  0  0  0  0  0
  1  2  1  0  0  0  0
  2  3  2  0  0  0  0
  2  4  1  0  0  0  0
  3  5  1  0  0  0  0
  3  6  1  0  0  0  0
  4  7  2  0  0  0  0
  6  8  2  0  0  0  0
  7  9  1  0  0  0  0
  8 10  1  0  0  0  0
  9 11  1  0  0  0  0
 10 12  1  0  0  0  0
 12 13  1  0  0  0  0
 12 14  1  0  0  0  0
 13 15  2  0  0  0  0
 13 16  1  0  0  0  0
 16 17  1  0  0  0  0
 17 18  2  0  0  0  0
 17 19  1  0  0  0  0
 18 20  1  0  0  0  0
 18 21  1  0  0  0  0
 19 22  2  0  0  0  0
 20 23  2  0  0  0  0
 20 24  1  0  0  0  0
 21 25  1  0  0  0  0
  7  8  1  0  0  0  0
 11 12  1  0  0  0  0
 22 23  1  0  0  0  0
 24 25  1  0  0  0  0
  4 26  1  0  0  0  0
  6 27  1  0  0  0  0
 10 28  1  0  0  0  0
 10 29  1  0  0  0  0
 11 30  1  0  0  0  0
 11 31  1  0  0  0  0
 14 32  1  0  0  0  0
 14 33  1  0  0  0  0
 14 34  1  0  0  0  0
 16 35  1  0  0  0  0
 19 36  1  0  0  0  0
 21 37  1  0  0  0  0
 21 38  1  0  0  0  0
 23 39  1  0  0  0  0
 24 40  1  0  0  0  0
 24 41  1  0  0  0  0
 25 42  1  0  0  0  0
 25 43  1  0  0  0  0
M  END
> <BIOSOLVEIT.HYDE_ESTIMATED_AFFINITY_LOWER_BOUNDARY [nM]>
15332190.939843

> <BIOSOLVEIT.HYDE_ESTIMATED_AFFINITY_UPPER_BOUNDARY [nM]>
1523343820.960472

> <BIOSOLVEIT.HYDE_LIGAND_EFFICIENCY range: ++, +, 0, -, -->
--

> <BIOSOLVEIT.HYDE_LIGAND_LIPOPHILIC_EFFICIENCY range: ++, +, 0, -, -->
--

> <BIOSOLVEIT.INTER_CLASH range: red, yellow, green>
green

> <BIOSOLVEIT.INTRA_CLASH range: red, yellow, green>
green

> <BIOSOLVEIT.LOGP>
4.457

> <BIOSOLVEIT.MOLECULAR WEIGHT>
377.269

> <BIOSOLVEIT.MOLECULE_CHECKSUM>
LTQuNjU2NTk7MC4xODYyNjQ=

> <BIOSOLVEIT.TORSION_QUALITY range: red, yellow, green, not rotatable>
green

> <BIOSOLVEIT.TPSA>
51.22

> <BIOSOLVEIT.SEESAR_FAVORITE>
favorite

> <smc_score>
1.0

> <QED_score>
0.841

> <distance>
0.563

> <SimilarityPheSA_1>
0.644

> <Smiles>
CC1(C(=O)Nc2cncc3c2CCC3)COc2cc(Cl)c(Cl)cc2C1

> <Similarity_SkelSpheres>
0.731

> <Cluster No>
36.0

> <QueryID>
EDG-MED-0e5afe9d-3, PET-UNK-29afea89-2

> <SimilarityPheSA>
0.6438

> <Postera series>
3-aminopyridine-like

> <PDB_code>
Mpro-x12699, Mpro-P0157

> <Approach>
DGM_focussed_RL

> <ID>
20210618_82

> <SimilarityPheSA_2>
0.823

> <OPTIBRIUM.logD>
3.93782

> <OPTIBRIUM.BBB category>
+

> <OPTIBRIUM.logP>
3.93782

> <OPTIBRIUM.P-gp category>
no

> <OPTIBRIUM.logS>
1.22213

> <OPTIBRIUM.HIA category>
+

> <OPTIBRIUM.PPB90 category>
high

> <OPTIBRIUM.2D6 affinity category>
medium

> <OPTIBRIUM.hERG pIC50>
4.82225

> <OPTIBRIUM.2C9 pKi>
5.53086

> <OPTIBRIUM.BBB log([brain]:[blood])>
-0.0927702

> <OPTIBRIUM.logS @ pH7.4>
1.22213

$$$$
Compound 717_1_06
haSeeSAR  07122111353D 1   1.00000     0.00000     0
SeeSAR 11.0.2 hazemaj
 43 46  0  0  0  0            999 V2000
    6.9717    4.3312   24.3594 Cl  0  0  0  0  0  0  0  0  0  0  0  0
    8.5690    3.8338   23.7505 C   0  0  0  0  0  0  0  0  0  0  0  0
    9.5235    4.7951   23.4355 C   0  0  0  0  0  0  0  0  0  0  0  0
    8.8504    2.4813   23.5962 C   0  0  0  0  0  0  0  0  0  0  0  0
    9.1378    6.5204   23.6413 Cl  0  0  0  0  0  0  0  0  0  0  0  0
   10.7755    4.4174   22.9606 C   0  0  0  0  0  0  0  0  0  0  0  0
   10.1029    2.1096   23.1207 C   0  0  0  0  0  0  0  0  0  0  0  0
   11.0619    3.0655   22.8032 C   0  0  0  0  0  0  0  0  0  0  0  0
   10.4281    0.6349   22.9461 C   0  0  0  0  0  0  0  0  0  0  0  0
    9.2319   -0.0784   22.4742 N   0  0  0  0  0  0  0  0  0  0  0  0
    8.4990    0.3723   21.3679 C   0  0  0  0  0  0  0  0  0  0  0  0
    8.8036   -1.2855   23.1977 C   0  0  0  0  0  0  0  0  0  0  0  0
    8.8676    1.3816   20.7879 O   0  0  0  0  0  0  0  0  0  0  0  0
    7.3593   -0.3135   20.9256 N   0  0  0  0  0  0  0  0  0  0  0  0
    7.3013   -1.4949   23.0910 C   0  0  0  0  0  0  0  0  0  0  0  0
    6.6155    0.1329   19.8246 C   0  0  0  0  0  0  0  0  0  0  0  0
    6.9227   -1.5339   21.6189 C   0  0  0  0  0  0  0  0  0  0  0  0
    5.5042    0.9617   19.9517 C   0  0  0  0  0  0  0  0  0  0  0  0
    7.0063   -0.2717   18.5525 C   0  0  0  0  0  0  0  0  0  0  0  0
    4.8149    1.3643   18.8125 C   0  0  0  0  0  0  0  0  0  0  0  0
    5.0542    1.4085   21.1896 C   0  0  0  0  0  0  0  0  0  0  0  0
    6.3240    0.1296   17.4688 N   0  0  0  0  0  0  0  0  0  0  0  0
    5.2495    0.9283   17.5643 C   0  0  0  0  0  0  0  0  0  0  0  0
    3.6994    2.1915   18.8914 C   0  0  0  0  0  0  0  0  0  0  0  0
    3.9434    2.2364   21.2973 C   0  0  0  0  0  0  0  0  0  0  0  0
    3.2720    2.6223   20.1434 C   0  0  0  0  0  0  0  0  0  0  0  0
    3.5450    2.6423   22.4982 F   0  0  0  0  0  0  0  0  0  0  0  0
    2.2113    3.4130   20.2656 F   0  0  0  0  0  0  0  0  0  0  0  0
    8.1652    1.7890   23.8227 H   0  0  0  0  0  0  0  0  0  0  0  0
   11.4612    5.1096   22.7351 H   0  0  0  0  0  0  0  0  0  0  0  0
   11.9575    2.7807   22.4616 H   0  0  0  0  0  0  0  0  0  0  0  0
   10.7205    0.2520   23.8225 H   0  0  0  0  0  0  0  0  0  0  0  0
   11.1633    0.5327   22.2759 H   0  0  0  0  0  0  0  0  0  0  0  0
    9.0509   -1.1914   24.1620 H   0  0  0  0  0  0  0  0  0  0  0  0
    9.2708   -2.0800   22.8097 H   0  0  0  0  0  0  0  0  0  0  0  0
    6.8229   -0.7416   23.5423 H   0  0  0  0  0  0  0  0  0  0  0  0
    7.0492   -2.3588   23.5270 H   0  0  0  0  0  0  0  0  0  0  0  0
    7.3584   -2.3258   21.1909 H   0  0  0  0  0  0  0  0  0  0  0  0
    5.9293   -1.6166   21.5396 H   0  0  0  0  0  0  0  0  0  0  0  0
    7.8027   -0.8668   18.4445 H   0  0  0  0  0  0  0  0  0  0  0  0
    5.5392    1.1285   22.0180 H   0  0  0  0  0  0  0  0  0  0  0  0
    4.7613    1.2103   16.7384 H   0  0  0  0  0  0  0  0  0  0  0  0
    3.2135    2.4716   18.0635 H   0  0  0  0  0  0  0  0  0  0  0  0
  1  2  1  0  0  0  0
  2  3  2  0  0  0  0
  2  4  1  0  0  0  0
  3  5  1  0  0  0  0
  3  6  1  0  0  0  0
  4  7  2  0  0  0  0
  6  8  2  0  0  0  0
  7  9  1  0  0  0  0
  9 10  1  0  0  0  0
 10 11  1  0  0  0  0
 10 12  1  0  0  0  0
 11 13  2  0  0  0  0
 11 14  1  0  0  0  0
 12 15  1  0  0  0  0
 14 16  1  0  0  0  0
 14 17  1  0  0  0  0
 16 18  1  0  0  0  0
 16 19  2  0  0  0  0
 18 20  1  0  0  0  0
 18 21  2  0  0  0  0
 19 22  1  0  0  0  0
 20 23  1  0  0  0  0
 20 24  2  0  0  0  0
 21 25  1  0  0  0  0
 24 26  1  0  0  0  0
 25 27  1  0  0  0  0
 26 28  1  0  0  0  0
  7  8  1  0  0  0  0
 15 17  1  0  0  0  0
 22 23  2  0  0  0  0
 25 26  2  0  0  0  0
  4 29  1  0  0  0  0
  6 30  1  0  0  0  0
  8 31  1  0  0  0  0
  9 32  1  0  0  0  0
  9 33  1  0  0  0  0
 12 34  1  0  0  0  0
 12 35  1  0  0  0  0
 15 36  1  0  0  0  0
 15 37  1  0  0  0  0
 17 38  1  0  0  0  0
 17 39  1  0  0  0  0
 19 40  1  0  0  0  0
 21 41  1  0  0  0  0
 23 42  1  0  0  0  0
 24 43  1  0  0  0  0
M  END
> <BIOSOLVEIT.HYDE_ESTIMATED_AFFINITY_LOWER_BOUNDARY [nM]>
19307403.138010

> <BIOSOLVEIT.HYDE_ESTIMATED_AFFINITY_UPPER_BOUNDARY [nM]>
1918304656.162989

> <BIOSOLVEIT.HYDE_LIGAND_EFFICIENCY range: ++, +, 0, -, -->
--

> <BIOSOLVEIT.HYDE_LIGAND_LIPOPHILIC_EFFICIENCY range: ++, +, 0, -, -->
--

> <BIOSOLVEIT.INTER_CLASH range: red, yellow, green>
green

> <BIOSOLVEIT.INTRA_CLASH range: red, yellow, green>
yellow

> <BIOSOLVEIT.LOGP>
5.6521

> <BIOSOLVEIT.MOLECULAR WEIGHT>
422.261

> <BIOSOLVEIT.MOLECULE_CHECKSUM>
LTQuMDg1MTswLjE0NTg5Nw==

> <BIOSOLVEIT.TORSION_QUALITY range: red, yellow, green, not rotatable>
yellow

> <BIOSOLVEIT.TPSA>
36.44

> <BIOSOLVEIT.SEESAR_FAVORITE>
favorite

> <smc_score>
1.0

> <QED_score>
0.547

> <distance>
0.603

> <SimilarityPheSA_1>
0.788

> <Smiles>
O=C1N(Cc2ccc(Cl)c(Cl)c2)CCCN1c1cncc2cc(F)c(F)cc12

> <Similarity_SkelSpheres>
0.745

> <Cluster No>
406.0

> <QueryID>
PET-UNK-c9c1e0d8-3

> <SimilarityPheSA>
0.7878

> <Postera series>
3-aminopyridine-like

> <PDB_code>
Mpro-x12587

> <Approach>
DGM_focussed_RL

> <ID>
20210618_716

> <SimilarityPheSA_2>
0.883

> <OPTIBRIUM.logD>
4.40051

> <OPTIBRIUM.BBB category>
+

> <OPTIBRIUM.logP>
4.40051

> <OPTIBRIUM.P-gp category>
yes

> <OPTIBRIUM.logS>
-1.41467

> <OPTIBRIUM.HIA category>
+

> <OPTIBRIUM.PPB90 category>
high

> <OPTIBRIUM.2D6 affinity category>
medium

> <OPTIBRIUM.hERG pIC50>
6.26279

> <OPTIBRIUM.2C9 pKi>
6.0669

> <OPTIBRIUM.BBB log([brain]:[blood])>
0.0406193

> <OPTIBRIUM.logS @ pH7.4>
-1.41467

$$$$
Compound 114_1_03
haSeeSAR  07122111353D 1   1.00000     0.00000     0
SeeSAR 11.0.2 hazemaj
 44 47  0  0  0  0            999 V2000
    5.9514    2.0650   27.8363 Cl  0  0  0  0  0  0  0  0  0  0  0  0
    7.1376    0.9479   27.1165 C   0  0  0  0  0  0  0  0  0  0  0  0
    7.4933   -0.1010   27.9578 C   0  0  0  0  0  0  0  0  0  0  0  0
    7.6794    1.0835   25.8316 C   0  0  0  0  0  0  0  0  0  0  0  0
    6.7817   -0.2434   29.5836 Cl  0  0  0  0  0  0  0  0  0  0  0  0
    8.4148   -1.0395   27.5057 C   0  0  0  0  0  0  0  0  0  0  0  0
    8.5757    0.0982   25.3926 C   0  0  0  0  0  0  0  0  0  0  0  0
    7.3379    2.2400   24.8832 C   0  0  2  0  0  0  0  0  0  0  0  0
    8.9525   -0.9367   26.2271 C   0  0  0  0  0  0  0  0  0  0  0  0
    9.1978    0.0695   24.0049 C   0  0  0  0  0  0  0  0  0  0  0  0
    8.3286    2.4623   23.7462 C   0  0  0  0  0  0  0  0  0  0  0  0
    7.2734    3.6013   25.5622 C   0  0  0  0  0  0  0  0  0  0  0  0
    8.6827    1.1614   23.1663 N   0  0  0  0  0  0  0  0  0  0  0  0
    8.5254    1.0076   21.7818 C   0  0  0  0  0  0  0  0  0  0  0  0
    9.0484    1.8113   21.0099 O   0  0  0  0  0  0  0  0  0  0  0  0
    7.7089   -0.1514   21.2338 C   0  0  0  0  0  0  0  0  0  0  0  0
    6.8999    0.3204   20.0347 C   0  0  0  0  0  0  0  0  0  0  0  0
    5.6858    0.9950   20.1578 C   0  0  0  0  0  0  0  0  0  0  0  0
    7.4031    0.0621   18.7635 C   0  0  0  0  0  0  0  0  0  0  0  0
    5.0047    1.3940   19.0120 C   0  0  0  0  0  0  0  0  0  0  0  0
    5.1205    1.2880   21.3973 C   0  0  0  0  0  0  0  0  0  0  0  0
    6.7296    0.4564   17.6725 N   0  0  0  0  0  0  0  0  0  0  0  0
    5.5602    1.1063   17.7693 C   0  0  0  0  0  0  0  0  0  0  0  0
    3.7922    2.0688   19.1059 C   0  0  0  0  0  0  0  0  0  0  0  0
    3.9093    1.9613   21.5145 C   0  0  0  0  0  0  0  0  0  0  0  0
    3.2478    2.3506   20.3543 C   0  0  0  0  0  0  0  0  0  0  0  0
    8.6923   -1.7921   28.1031 H   0  0  0  0  0  0  0  0  0  0  0  0
    6.4421    2.0537   24.4798 H   0  0  0  0  0  0  0  0  0  0  0  0
    9.6151   -1.6152   25.9101 H   0  0  0  0  0  0  0  0  0  0  0  0
    8.9829   -0.8048   23.5696 H   0  0  0  0  0  0  0  0  0  0  0  0
   10.1895    0.1644   24.0906 H   0  0  0  0  0  0  0  0  0  0  0  0
    9.1512    2.9080   24.0995 H   0  0  0  0  0  0  0  0  0  0  0  0
    7.9113    3.0404   23.0451 H   0  0  0  0  0  0  0  0  0  0  0  0
    7.0472    4.3012   24.8846 H   0  0  0  0  0  0  0  0  0  0  0  0
    6.5704    3.5863   26.2732 H   0  0  0  0  0  0  0  0  0  0  0  0
    8.1601    3.8106   25.9744 H   0  0  0  0  0  0  0  0  0  0  0  0
    7.0889   -0.4871   21.9429 H   0  0  0  0  0  0  0  0  0  0  0  0
    8.3234   -0.8884   20.9521 H   0  0  0  0  0  0  0  0  0  0  0  0
    8.2729   -0.4209   18.6624 H   0  0  0  0  0  0  0  0  0  0  0  0
    5.6004    1.0054   22.2279 H   0  0  0  0  0  0  0  0  0  0  0  0
    5.0816    1.3875   16.9375 H   0  0  0  0  0  0  0  0  0  0  0  0
    3.3118    2.3515   18.2757 H   0  0  0  0  0  0  0  0  0  0  0  0
    3.5218    2.1615   22.4145 H   0  0  0  0  0  0  0  0  0  0  0  0
    2.3757    2.8358   20.4183 H   0  0  0  0  0  0  0  0  0  0  0  0
  1  2  1  0  0  0  0
  2  3  2  0  0  0  0
  2  4  1  0  0  0  0
  3  5  1  0  0  0  0
  3  6  1  0  0  0  0
  4  7  2  0  0  0  0
  4  8  1  0  0  0  0
  6  9  2  0  0  0  0
  7 10  1  0  0  0  0
  8 11  1  0  0  0  0
  8 12  1  0  0  0  0
 10 13  1  0  0  0  0
 13 14  1  0  0  0  0
 14 15  2  0  0  0  0
 14 16  1  0  0  0  0
 16 17  1  0  0  0  0
 17 18  1  0  0  0  0
 17 19  2  0  0  0  0
 18 20  1  0  0  0  0
 18 21  2  0  0  0  0
 19 22  1  0  0  0  0
 20 23  1  0  0  0  0
 20 24  2  0  0  0  0
 21 25  1  0  0  0  0
 24 26  1  0  0  0  0
  7  9  1  0  0  0  0
 11 13  1  0  0  0  0
 22 23  2  0  0  0  0
 25 26  2  0  0  0  0
  6 27  1  0  0  0  0
  8 28  1  0  0  0  0
  9 29  1  0  0  0  0
 10 30  1  0  0  0  0
 10 31  1  0  0  0  0
 11 32  1  0  0  0  0
 11 33  1  0  0  0  0
 12 34  1  0  0  0  0
 12 35  1  0  0  0  0
 12 36  1  0  0  0  0
 16 37  1  0  0  0  0
 16 38  1  0  0  0  0
 19 39  1  0  0  0  0
 21 40  1  0  0  0  0
 23 41  1  0  0  0  0
 24 42  1  0  0  0  0
 25 43  1  0  0  0  0
 26 44  1  0  0  0  0
M  END
> <BIOSOLVEIT.HYDE_ESTIMATED_AFFINITY_LOWER_BOUNDARY [nM]>
20526042.419237

> <BIOSOLVEIT.HYDE_ESTIMATED_AFFINITY_UPPER_BOUNDARY [nM]>
2039383673.918540

> <BIOSOLVEIT.HYDE_LIGAND_EFFICIENCY range: ++, +, 0, -, -->
--

> <BIOSOLVEIT.HYDE_LIGAND_LIPOPHILIC_EFFICIENCY range: ++, +, 0, -, -->
--

> <BIOSOLVEIT.INTER_CLASH range: red, yellow, green>
green

> <BIOSOLVEIT.INTRA_CLASH range: red, yellow, green>
yellow

> <BIOSOLVEIT.LOGP>
5.23

> <BIOSOLVEIT.MOLECULAR WEIGHT>
385.292

> <BIOSOLVEIT.MOLECULE_CHECKSUM>
LTMuOTMzMzg7MC4xNTEyODQ=

> <BIOSOLVEIT.TORSION_QUALITY range: red, yellow, green, not rotatable>
red

> <BIOSOLVEIT.TPSA>
33.2

> <BIOSOLVEIT.SEESAR_FAVORITE>
favorite

> <smc_score>
0.938

> <QED_score>
0.605

> <distance>
0.586

> <SimilarityPheSA_1>
0.647

> <Smiles>
CC1CN(C(=O)Cc2cncc3ccccc23)Cc2ccc(Cl)c(Cl)c21

> <Similarity_SkelSpheres>
0.781

> <Cluster No>
53.0

> <QueryID>
PET-UNK-1901c25b-1

> <SimilarityPheSA>
0.6473

> <Postera series>
3-aminopyridine-like

> <PDB_code>
Mpro-x11790

> <Approach>
DGM_focussed_RL

> <ID>
20210618_113

> <SimilarityPheSA_2>
0.8

> <OPTIBRIUM.logD>
4.40624

> <OPTIBRIUM.BBB category>
+

> <OPTIBRIUM.logP>
4.40624

> <OPTIBRIUM.P-gp category>
no

> <OPTIBRIUM.logS>
0.321175

> <OPTIBRIUM.HIA category>
+

> <OPTIBRIUM.PPB90 category>
high

> <OPTIBRIUM.2D6 affinity category>
medium

> <OPTIBRIUM.hERG pIC50>
5.38808

> <OPTIBRIUM.2C9 pKi>
5.86156

> <OPTIBRIUM.BBB log([brain]:[blood])>
-0.366431

> <OPTIBRIUM.logS @ pH7.4>
0.321175

$$$$
Compound 36_1_08
haSeeSAR  07122111353D 1   1.00000     0.00000     0
SeeSAR 11.0.2 hazemaj
 46 49  0  0  0  0            999 V2000
   10.4458   -4.5669   25.3839 Cl  0  0  0  0  0  0  0  0  0  0  0  0
    8.7184   -4.8223   25.0379 C   0  0  0  0  0  0  0  0  0  0  0  0
    8.1380   -4.2853   23.8930 C   0  0  0  0  0  0  0  0  0  0  0  0
    7.9632   -5.5697   25.9357 C   0  0  0  0  0  0  0  0  0  0  0  0
    6.7850   -4.5028   23.6499 C   0  0  0  0  0  0  0  0  0  0  0  0
    8.9804   -3.4716   22.9237 C   0  0  0  0  0  0  0  0  0  0  0  0
    6.6125   -5.7763   25.6749 C   0  0  0  0  0  0  0  0  0  0  0  0
    6.2306   -3.9891   22.5549 F   0  0  0  0  0  0  0  0  0  0  0  0
    6.0138   -5.2480   24.5359 C   0  0  0  0  0  0  0  0  0  0  0  0
    9.2806   -2.1594   23.5171 N   0  3  2  0  0  0  0  0  0  0  0  0
    5.6230   -6.7288   26.8071 Cl  0  0  0  0  0  0  0  0  0  0  0  0
    8.1254   -1.3053   23.2380 C   0  0  0  0  0  0  0  0  0  0  0  0
   10.3742   -1.5913   22.7255 C   0  0  0  0  0  0  0  0  0  0  0  0
    8.6784    0.0812   22.9694 C   0  0  1  0  0  0  0  0  0  0  0  0
   10.1814   -0.0963   22.8809 C   0  0  0  0  0  0  0  0  0  0  0  0
    8.1094    0.5547   21.6413 C   0  0  0  0  0  0  0  0  0  0  0  0
    8.7496    1.3403   20.9425 O   0  0  0  0  0  0  0  0  0  0  0  0
    6.9262    0.1225   21.2369 N   0  0  0  0  0  0  0  0  0  0  0  0
    6.4021    0.5587   20.0135 C   0  0  0  0  0  0  0  0  0  0  0  0
    5.2448    1.3290   19.9235 C   0  0  0  0  0  0  0  0  0  0  0  0
    7.0699    0.2042   18.8457 C   0  0  0  0  0  0  0  0  0  0  0  0
    4.7778    1.7295   18.6771 C   0  0  0  0  0  0  0  0  0  0  0  0
    4.5205    1.7236   21.0447 C   0  0  0  0  0  0  0  0  0  0  0  0
    6.6028    0.6007   17.6524 N   0  0  0  0  0  0  0  0  0  0  0  0
    5.4904    1.3422   17.5467 C   0  0  0  0  0  0  0  0  0  0  0  0
    3.6214    2.4989   18.5984 C   0  0  0  0  0  0  0  0  0  0  0  0
    3.3676    2.4933   20.9272 C   0  0  0  0  0  0  0  0  0  0  0  0
    2.9527    2.8583   19.7045 N   0  0  0  0  0  0  0  0  0  0  0  0
    8.3853   -5.9532   26.7572 H   0  0  0  0  0  0  0  0  0  0  0  0
    8.4760   -3.3438   22.0698 H   0  0  0  0  0  0  0  0  0  0  0  0
    9.8349   -3.9562   22.7367 H   0  0  0  0  0  0  0  0  0  0  0  0
    5.0422   -5.4019   24.3564 H   0  0  0  0  0  0  0  0  0  0  0  0
    7.5100   -1.2862   24.0260 H   0  0  0  0  0  0  0  0  0  0  0  0
    7.6307   -1.6423   22.4369 H   0  0  0  0  0  0  0  0  0  0  0  0
   10.3003   -1.8636   21.7662 H   0  0  0  0  0  0  0  0  0  0  0  0
   11.2622   -1.8768   23.0857 H   0  0  0  0  0  0  0  0  0  0  0  0
    8.4361    0.7115   23.7069 H   0  0  0  0  0  0  0  0  0  0  0  0
   10.5497    0.3923   22.0900 H   0  0  0  0  0  0  0  0  0  0  0  0
   10.6266    0.2335   23.7134 H   0  0  0  0  0  0  0  0  0  0  0  0
    6.4062   -0.5156   21.8045 H   0  0  0  0  0  0  0  0  0  0  0  0
    7.9017   -0.3486   18.8961 H   0  0  0  0  0  0  0  0  0  0  0  0
    4.8355    1.4484   21.9531 H   0  0  0  0  0  0  0  0  0  0  0  0
    5.1683    1.6210   16.6420 H   0  0  0  0  0  0  0  0  0  0  0  0
    3.2832    2.7888   17.7031 H   0  0  0  0  0  0  0  0  0  0  0  0
    2.8562    2.7699   21.7409 H   0  0  0  0  0  0  0  0  0  0  0  0
    9.4955   -2.2146   24.4920 H   0  0  0  0  0  0  0  0  0  0  0  0
  1  2  1  0  0  0  0
  2  3  2  0  0  0  0
  2  4  1  0  0  0  0
  3  5  1  0  0  0  0
  3  6  1  0  0  0  0
  4  7  2  0  0  0  0
  5  8  1  0  0  0  0
  5  9  2  0  0  0  0
  6 10  1  0  0  0  0
  7 11  1  0  0  0  0
 10 12  1  0  0  0  0
 10 13  1  0  0  0  0
 12 14  1  0  0  0  0
 13 15  1  0  0  0  0
 14 16  1  0  0  0  0
 16 17  2  0  0  0  0
 16 18  1  0  0  0  0
 18 19  1  0  0  0  0
 19 20  1  0  0  0  0
 19 21  2  0  0  0  0
 20 22  1  0  0  0  0
 20 23  2  0  0  0  0
 21 24  1  0  0  0  0
 22 25  1  0  0  0  0
 22 26  2  0  0  0  0
 23 27  1  0  0  0  0
 26 28  1  0  0  0  0
  7  9  1  0  0  0  0
 14 15  1  0  0  0  0
 24 25  2  0  0  0  0
 27 28  2  0  0  0  0
  4 29  1  0  0  0  0
  6 30  1  0  0  0  0
  6 31  1  0  0  0  0
  9 32  1  0  0  0  0
 12 33  1  0  0  0  0
 12 34  1  0  0  0  0
 13 35  1  0  0  0  0
 13 36  1  0  0  0  0
 14 37  1  0  0  0  0
 15 38  1  0  0  0  0
 15 39  1  0  0  0  0
 18 40  1  0  0  0  0
 21 41  1  0  0  0  0
 23 42  1  0  0  0  0
 25 43  1  0  0  0  0
 26 44  1  0  0  0  0
 27 45  1  0  0  0  0
 10 46  1  0  0  0  0
M  CHG  1  10   1
M  END
> <BIOSOLVEIT.HYDE_ESTIMATED_AFFINITY_LOWER_BOUNDARY [nM]>
32451920.943671

> <BIOSOLVEIT.HYDE_ESTIMATED_AFFINITY_UPPER_BOUNDARY [nM]>
3224290216.695240

> <BIOSOLVEIT.HYDE_LIGAND_EFFICIENCY range: ++, +, 0, -, -->
--

> <BIOSOLVEIT.HYDE_LIGAND_LIPOPHILIC_EFFICIENCY range: ++, +, 0, -, -->
--

> <BIOSOLVEIT.INTER_CLASH range: red, yellow, green>
yellow

> <BIOSOLVEIT.INTRA_CLASH range: red, yellow, green>
green

> <BIOSOLVEIT.LOGP>
3.1192

> <BIOSOLVEIT.MOLECULAR WEIGHT>
420.293

> <BIOSOLVEIT.MOLECULE_CHECKSUM>
LTIuNzk3ODU7MC4wOTk5MjMz

> <BIOSOLVEIT.TORSION_QUALITY range: red, yellow, green, not rotatable>
green

> <BIOSOLVEIT.TPSA>
59.32

> <BIOSOLVEIT.SEESAR_FAVORITE>
favorite

> <smc_score>
0.688

> <QED_score>
0.675

> <distance>
0.541

> <SimilarityPheSA_1>
0.638

> <Smiles>
O=C(Nc1cncc2cnccc12)C1CCN(Cc2c(F)cc(Cl)cc2Cl)C1

> <Similarity_SkelSpheres>
0.775

> <Cluster No>
18.0

> <QueryID>
MAT-POS-bb423b95-1

> <SimilarityPheSA>
0.6383

> <Postera series>
3-aminopyridine-like

> <PDB_code>
Mpro-x11542

> <Approach>
DGM_focussed_RL

> <ID>
20210618_35

> <SimilarityPheSA_2>
0.741

> <OPTIBRIUM.logD>
2.60539

> <OPTIBRIUM.BBB category>
-

> <OPTIBRIUM.logP>
2.51247

> <OPTIBRIUM.P-gp category>
yes

> <OPTIBRIUM.logS>
1.20941

> <OPTIBRIUM.HIA category>
+

> <OPTIBRIUM.PPB90 category>
high

> <OPTIBRIUM.2D6 affinity category>
high

> <OPTIBRIUM.hERG pIC50>
5.15418

> <OPTIBRIUM.2C9 pKi>
5.54286

> <OPTIBRIUM.BBB log([brain]:[blood])>
-0.502723

> <OPTIBRIUM.logS @ pH7.4>
1.8643

$$$$
Compound 576_1_4
haSeeSAR  07122111353D 1   1.00000     0.00000     0
SeeSAR 11.0.2 hazemaj
 40 43  0  0  0  0            999 V2000
    7.6255    0.8581   29.4485 Cl  0  0  0  0  0  0  0  0  0  0  0  0
    8.2022    0.7100   27.7711 C   0  0  0  0  0  0  0  0  0  0  0  0
    9.1065   -0.2931   27.4400 C   0  0  0  0  0  0  0  0  0  0  0  0
    7.7467    1.5977   26.8022 C   0  0  0  0  0  0  0  0  0  0  0  0
    9.5359   -1.1360   28.3741 F   0  0  0  0  0  0  0  0  0  0  0  0
    9.5679   -0.4214   26.1337 C   0  0  0  0  0  0  0  0  0  0  0  0
    8.2094    1.4652   25.4976 C   0  0  0  0  0  0  0  0  0  0  0  0
    9.1144    0.4632   25.1599 C   0  0  0  0  0  0  0  0  0  0  0  0
    7.6196    2.6064   24.2652 Cl  0  0  0  0  0  0  0  0  0  0  0  0
    9.6086    0.3364   23.7279 C   0  0  0  0  0  0  0  0  0  0  0  0
    8.4729    0.0525   22.8415 N   0  0  0  0  0  0  0  0  0  0  0  0
    8.1966    0.6966   21.6376 C   0  0  0  0  0  0  0  0  0  0  0  0
    7.4297   -0.9433   23.1295 C   0  0  0  0  0  0  0  0  0  0  0  0
    8.8400    1.6326   21.1721 O   0  0  0  0  0  0  0  0  0  0  0  0
    7.0827    0.1123   21.0452 N   0  0  0  0  0  0  0  0  0  0  0  0
    6.6382   -1.0365   21.8366 C   0  0  0  0  0  0  0  0  0  0  0  0
    6.4855    0.5399   19.8519 C   0  0  0  0  0  0  0  0  0  0  0  0
    5.2654    1.2115   19.8177 C   0  0  0  0  0  0  0  0  0  0  0  0
    7.1417    0.2814   18.6525 C   0  0  0  0  0  0  0  0  0  0  0  0
    4.7142    1.6169   18.6068 C   0  0  0  0  0  0  0  0  0  0  0  0
    4.5588    1.4998   20.9801 C   0  0  0  0  0  0  0  0  0  0  0  0
    6.5986    0.6776   17.4915 N   0  0  0  0  0  0  0  0  0  0  0  0
    3.5381    2.2667   18.5779 N   0  0  0  0  0  0  0  0  0  0  0  0
    5.4245    1.3259   17.4467 C   0  0  0  0  0  0  0  0  0  0  0  0
    3.3450    2.1715   20.9398 C   0  0  0  0  0  0  0  0  0  0  0  0
    2.8512    2.5496   19.6949 C   0  0  0  0  0  0  0  0  0  0  0  0
    2.6141    2.4625   22.2425 C   0  0  0  0  0  0  0  0  0  0  0  0
    2.0666    2.6806   23.2183 N   0  0  0  0  0  0  0  0  0  0  0  0
    7.0969    2.3196   27.0400 H   0  0  0  0  0  0  0  0  0  0  0  0
   10.2192   -1.1424   25.8969 H   0  0  0  0  0  0  0  0  0  0  0  0
   10.2719   -0.4097   23.6691 H   0  0  0  0  0  0  0  0  0  0  0  0
   10.0439    1.1922   23.4484 H   0  0  0  0  0  0  0  0  0  0  0  0
    6.8458   -0.6380   23.8817 H   0  0  0  0  0  0  0  0  0  0  0  0
    7.8368   -1.8268   23.3608 H   0  0  0  0  0  0  0  0  0  0  0  0
    5.6567   -0.9805   22.0191 H   0  0  0  0  0  0  0  0  0  0  0  0
    6.8404   -1.8923   21.3603 H   0  0  0  0  0  0  0  0  0  0  0  0
    8.0182   -0.2000   18.6559 H   0  0  0  0  0  0  0  0  0  0  0  0
    4.9331    1.2173   21.8634 H   0  0  0  0  0  0  0  0  0  0  0  0
    5.0527    1.6054   16.5615 H   0  0  0  0  0  0  0  0  0  0  0  0
    1.9791    3.0349   19.6327 H   0  0  0  0  0  0  0  0  0  0  0  0
  1  2  1  0  0  0  0
  2  3  2  0  0  0  0
  2  4  1  0  0  0  0
  3  5  1  0  0  0  0
  3  6  1  0  0  0  0
  4  7  2  0  0  0  0
  6  8  2  0  0  0  0
  7  9  1  0  0  0  0
  8 10  1  0  0  0  0
 10 11  1  0  0  0  0
 11 12  1  0  0  0  0
 11 13  1  0  0  0  0
 12 14  2  0  0  0  0
 12 15  1  0  0  0  0
 13 16  1  0  0  0  0
 15 17  1  0  0  0  0
 17 18  1  0  0  0  0
 17 19  2  0  0  0  0
 18 20  1  0  0  0  0
 18 21  2  0  0  0  0
 19 22  1  0  0  0  0
 20 23  2  0  0  0  0
 20 24  1  0  0  0  0
 21 25  1  0  0  0  0
 23 26  1  0  0  0  0
 25 27  1  0  0  0  0
 27 28  3  0  0  0  0
  7  8  1  0  0  0  0
 15 16  1  0  0  0  0
 22 24  2  0  0  0  0
 25 26  2  0  0  0  0
  4 29  1  0  0  0  0
  6 30  1  0  0  0  0
 10 31  1  0  0  0  0
 10 32  1  0  0  0  0
 13 33  1  0  0  0  0
 13 34  1  0  0  0  0
 16 35  1  0  0  0  0
 16 36  1  0  0  0  0
 19 37  1  0  0  0  0
 21 38  1  0  0  0  0
 24 39  1  0  0  0  0
 26 40  1  0  0  0  0
M  END
> <BIOSOLVEIT.HYDE_ESTIMATED_AFFINITY_LOWER_BOUNDARY [nM]>
45651809.442597

> <BIOSOLVEIT.HYDE_ESTIMATED_AFFINITY_UPPER_BOUNDARY [nM]>
4535777182.980823

> <BIOSOLVEIT.HYDE_LIGAND_EFFICIENCY range: ++, +, 0, -, -->
--

> <BIOSOLVEIT.HYDE_LIGAND_LIPOPHILIC_EFFICIENCY range: ++, +, 0, -, -->
--

> <BIOSOLVEIT.INTER_CLASH range: red, yellow, green>
green

> <BIOSOLVEIT.INTRA_CLASH range: red, yellow, green>
green

> <BIOSOLVEIT.LOGP>
4.38958

> <BIOSOLVEIT.MOLECULAR WEIGHT>
416.242

> <BIOSOLVEIT.MOLECULE_CHECKSUM>
LTEuOTUxODM7MC4wNjk3MDgx

> <BIOSOLVEIT.TORSION_QUALITY range: red, yellow, green, not rotatable>
yellow

> <BIOSOLVEIT.TPSA>
73.12

> <BIOSOLVEIT.SEESAR_FAVORITE>
favorite

> <smc_score>
0.75

> <QED_score>
0.594

> <distance>
0.704

> <SimilarityPheSA_1>
0.679

> <Smiles>
N#Cc1cnc2cncc(N3CCN(Cc4cc(F)c(Cl)cc4Cl)C3=O)c2c1

> <Similarity_SkelSpheres>
0.657

> <Cluster No>
309.0

> <QueryID>
MAT-POS-f7918075-5

> <SimilarityPheSA>
0.6794

> <Postera series>
3-aminopyridine-like

> <PDB_code>
Mpro-x11499

> <Approach>
DGM_focussed_RL

> <ID>
20210618_575

> <SimilarityPheSA_2>
0.804

> <OPTIBRIUM.logD>
3.20083

> <OPTIBRIUM.BBB category>
-

> <OPTIBRIUM.logP>
3.20083

> <OPTIBRIUM.P-gp category>
no

> <OPTIBRIUM.logS>
-0.411315

> <OPTIBRIUM.HIA category>
+

> <OPTIBRIUM.PPB90 category>
high

> <OPTIBRIUM.2D6 affinity category>
medium

> <OPTIBRIUM.hERG pIC50>
5.61107

> <OPTIBRIUM.2C9 pKi>
5.90856

> <OPTIBRIUM.BBB log([brain]:[blood])>
-0.414557

> <OPTIBRIUM.logS @ pH7.4>
-0.411315

$$$$
Compound 145_1_10
haSeeSAR  07122111353D 1   1.00000     0.00000     0
SeeSAR 11.0.2 hazemaj
 32 34  0  0  0  0            999 V2000
   10.8269    6.2380   23.1541 Cl  0  0  0  0  0  0  0  0  0  0  0  0
   10.1489    4.5991   23.3049 C   0  0  0  0  0  0  0  0  0  0  0  0
    8.8279    4.4306   23.7075 C   0  0  0  0  0  0  0  0  0  0  0  0
   10.9174    3.4733   23.0230 C   0  0  0  0  0  0  0  0  0  0  0  0
    7.8062    5.8412   24.0741 Cl  0  0  0  0  0  0  0  0  0  0  0  0
    8.2737    3.1612   23.8304 C   0  0  0  0  0  0  0  0  0  0  0  0
   10.3782    2.1903   23.1222 C   0  0  0  0  0  0  0  0  0  0  0  0
    9.0533    2.0508   23.5199 C   0  0  0  0  0  0  0  0  0  0  0  0
   11.0822    1.0674   22.8419 O   0  0  0  0  0  0  0  0  0  0  0  0
    8.4689    0.6484   23.6000 C   0  0  0  0  0  0  0  0  0  0  0  0
   10.4934   -0.0837   22.2422 C   0  0  0  0  0  0  0  0  0  0  0  0
    8.9821   -0.1651   22.4186 C   0  0  2  0  0  0  0  0  0  0  0  0
    8.2659    0.2107   21.1334 C   0  0  0  0  0  0  0  0  0  0  0  0
    8.8309    0.9158   20.2975 O   0  0  0  0  0  0  0  0  0  0  0  0
    7.0345   -0.2198   20.9122 N   0  0  0  0  0  0  0  0  0  0  0  0
    6.3746    0.1265   19.7278 C   0  0  0  0  0  0  0  0  0  0  0  0
    5.2270    0.9121   19.7652 C   0  0  0  0  0  0  0  0  0  0  0  0
    6.8440   -0.3031   18.4914 C   0  0  0  0  0  0  0  0  0  0  0  0
    4.6112    1.2308   18.6170 N   0  0  0  0  0  0  0  0  0  0  0  0
    6.1827    0.0499   17.3791 N   0  0  0  0  0  0  0  0  0  0  0  0
    5.0777    0.8086   17.4327 C   0  0  0  0  0  0  0  0  0  0  0  0
   11.8714    3.5858   22.7451 H   0  0  0  0  0  0  0  0  0  0  0  0
    7.3288    3.0477   24.1375 H   0  0  0  0  0  0  0  0  0  0  0  0
    7.4708    0.6977   23.5660 H   0  0  0  0  0  0  0  0  0  0  0  0
    8.7523    0.2145   24.4553 H   0  0  0  0  0  0  0  0  0  0  0  0
   10.9030   -0.8978   22.6538 H   0  0  0  0  0  0  0  0  0  0  0  0
   10.6960   -0.0674   21.2631 H   0  0  0  0  0  0  0  0  0  0  0  0
    8.7615   -1.1224   22.6061 H   0  0  0  0  0  0  0  0  0  0  0  0
    6.5755   -0.7927   21.5912 H   0  0  0  0  0  0  0  0  0  0  0  0
    4.8648    1.2360   20.6393 H   0  0  0  0  0  0  0  0  0  0  0  0
    7.6661   -0.8692   18.4320 H   0  0  0  0  0  0  0  0  0  0  0  0
    4.6018    1.0592   16.5896 H   0  0  0  0  0  0  0  0  0  0  0  0
  1  2  1  0  0  0  0
  2  3  2  0  0  0  0
  2  4  1  0  0  0  0
  3  5  1  0  0  0  0
  3  6  1  0  0  0  0
  4  7  2  0  0  0  0
  6  8  2  0  0  0  0
  7  9  1  0  0  0  0
  8 10  1  0  0  0  0
  9 11  1  0  0  0  0
 10 12  1  0  0  0  0
 12 13  1  0  0  0  0
 13 14  2  0  0  0  0
 13 15  1  0  0  0  0
 15 16  1  0  0  0  0
 16 17  2  0  0  0  0
 16 18  1  0  0  0  0
 17 19  1  0  0  0  0
 18 20  2  0  0  0  0
 19 21  2  0  0  0  0
  7  8  1  0  0  0  0
 11 12  1  0  0  0  0
 20 21  1  0  0  0  0
  4 22  1  0  0  0  0
  6 23  1  0  0  0  0
 10 24  1  0  0  0  0
 10 25  1  0  0  0  0
 11 26  1  0  0  0  0
 11 27  1  0  0  0  0
 12 28  1  0  0  0  0
 15 29  1  0  0  0  0
 17 30  1  0  0  0  0
 18 31  1  0  0  0  0
 21 32  1  0  0  0  0
M  END
> <BIOSOLVEIT.HYDE_ESTIMATED_AFFINITY_LOWER_BOUNDARY [nM]>
58686366.145788

> <BIOSOLVEIT.HYDE_ESTIMATED_AFFINITY_UPPER_BOUNDARY [nM]>
5830837457.841197

> <BIOSOLVEIT.HYDE_LIGAND_EFFICIENCY range: ++, +, 0, -, -->
--

> <BIOSOLVEIT.HYDE_LIGAND_LIPOPHILIC_EFFICIENCY range: ++, +, 0, -, -->
--

> <BIOSOLVEIT.INTER_CLASH range: red, yellow, green>
green

> <BIOSOLVEIT.INTRA_CLASH range: red, yellow, green>
green

> <BIOSOLVEIT.LOGP>
2.9732

> <BIOSOLVEIT.MOLECULAR WEIGHT>
324.166

> <BIOSOLVEIT.MOLECULE_CHECKSUM>
LTEuMzI5MjswLjA2MzI5NTM=

> <BIOSOLVEIT.TORSION_QUALITY range: red, yellow, green, not rotatable>
yellow

> <BIOSOLVEIT.TPSA>
64.11

> <BIOSOLVEIT.SEESAR_FAVORITE>
favorite

> <smc_score>
0.75

> <QED_score>
0.922

> <distance>
0.652

> <SimilarityPheSA_1>
0.675

> <Smiles>
O=C(Nc1cncnc1)C1COc2cc(Cl)c(Cl)cc2C1

> <Similarity_SkelSpheres>
0.687

> <Cluster No>
67.0

> <QueryID>
JAG-UCB-a3ef7265-20

> <SimilarityPheSA>
0.6749

> <Postera series>
3-aminopyridine-like

> <PDB_code>
Mpro-x10324

> <Approach>
DGM_focussed_RL

> <ID>
20210618_144

> <SimilarityPheSA_2>
0.746

> <OPTIBRIUM.logD>
3.4447

> <OPTIBRIUM.BBB category>
-

> <OPTIBRIUM.logP>
3.4447

> <OPTIBRIUM.P-gp category>
no

> <OPTIBRIUM.logS>
1.28064

> <OPTIBRIUM.HIA category>
+

> <OPTIBRIUM.PPB90 category>
high

> <OPTIBRIUM.2D6 affinity category>
high

> <OPTIBRIUM.hERG pIC50>
4.63529

> <OPTIBRIUM.2C9 pKi>
5.08819

> <OPTIBRIUM.BBB log([brain]:[blood])>
-0.0870978

> <OPTIBRIUM.logS @ pH7.4>
1.28064

$$$$
Compound 145_1_08
haSeeSAR  07122111353D 1   1.00000     0.00000     0
SeeSAR 11.0.2 hazemaj
 32 34  0  0  0  0            999 V2000
   10.8271    6.2382   23.1542 Cl  0  0  0  0  0  0  0  0  0  0  0  0
   10.1490    4.5992   23.3049 C   0  0  0  0  0  0  0  0  0  0  0  0
    8.8279    4.4309   23.7075 C   0  0  0  0  0  0  0  0  0  0  0  0
   10.9174    3.4734   23.0231 C   0  0  0  0  0  0  0  0  0  0  0  0
    7.8063    5.8414   24.0742 Cl  0  0  0  0  0  0  0  0  0  0  0  0
    8.2737    3.1613   23.8305 C   0  0  0  0  0  0  0  0  0  0  0  0
   10.3783    2.1904   23.1222 C   0  0  0  0  0  0  0  0  0  0  0  0
    9.0533    2.0510   23.5199 C   0  0  0  0  0  0  0  0  0  0  0  0
   11.0823    1.0676   22.8419 O   0  0  0  0  0  0  0  0  0  0  0  0
    8.4690    0.6486   23.6001 C   0  0  0  0  0  0  0  0  0  0  0  0
   10.4934   -0.0835   22.2422 C   0  0  0  0  0  0  0  0  0  0  0  0
    8.9820   -0.1650   22.4187 C   0  0  2  0  0  0  0  0  0  0  0  0
    8.2658    0.2108   21.1335 C   0  0  0  0  0  0  0  0  0  0  0  0
    8.8308    0.9161   20.2976 O   0  0  0  0  0  0  0  0  0  0  0  0
    7.0346   -0.2198   20.9121 N   0  0  0  0  0  0  0  0  0  0  0  0
    6.3746    0.1265   19.7278 C   0  0  0  0  0  0  0  0  0  0  0  0
    5.2270    0.9121   19.7652 C   0  0  0  0  0  0  0  0  0  0  0  0
    6.8441   -0.3030   18.4913 C   0  0  0  0  0  0  0  0  0  0  0  0
    4.6112    1.2308   18.6171 N   0  0  0  0  0  0  0  0  0  0  0  0
    6.1826    0.0500   17.3790 N   0  0  0  0  0  0  0  0  0  0  0  0
    5.0777    0.8086   17.4327 C   0  0  0  0  0  0  0  0  0  0  0  0
   11.8715    3.5859   22.7451 H   0  0  0  0  0  0  0  0  0  0  0  0
    7.3289    3.0479   24.1376 H   0  0  0  0  0  0  0  0  0  0  0  0
    7.4708    0.6978   23.5661 H   0  0  0  0  0  0  0  0  0  0  0  0
    8.7523    0.2147   24.4554 H   0  0  0  0  0  0  0  0  0  0  0  0
   10.9031   -0.8977   22.6539 H   0  0  0  0  0  0  0  0  0  0  0  0
   10.6959   -0.0672   21.2631 H   0  0  0  0  0  0  0  0  0  0  0  0
    8.7616   -1.1222   22.6061 H   0  0  0  0  0  0  0  0  0  0  0  0
    6.5756   -0.7927   21.5911 H   0  0  0  0  0  0  0  0  0  0  0  0
    4.8648    1.2359   20.6393 H   0  0  0  0  0  0  0  0  0  0  0  0
    7.6662   -0.8691   18.4321 H   0  0  0  0  0  0  0  0  0  0  0  0
    4.6018    1.0592   16.5897 H   0  0  0  0  0  0  0  0  0  0  0  0
  1  2  1  0  0  0  0
  2  3  2  0  0  0  0
  2  4  1  0  0  0  0
  3  5  1  0  0  0  0
  3  6  1  0  0  0  0
  4  7  2  0  0  0  0
  6  8  2  0  0  0  0
  7  9  1  0  0  0  0
  8 10  1  0  0  0  0
  9 11  1  0  0  0  0
 10 12  1  0  0  0  0
 12 13  1  0  0  0  0
 13 14  2  0  0  0  0
 13 15  1  0  0  0  0
 15 16  1  0  0  0  0
 16 17  2  0  0  0  0
 16 18  1  0  0  0  0
 17 19  1  0  0  0  0
 18 20  2  0  0  0  0
 19 21  2  0  0  0  0
  7  8  1  0  0  0  0
 11 12  1  0  0  0  0
 20 21  1  0  0  0  0
  4 22  1  0  0  0  0
  6 23  1  0  0  0  0
 10 24  1  0  0  0  0
 10 25  1  0  0  0  0
 11 26  1  0  0  0  0
 11 27  1  0  0  0  0
 12 28  1  0  0  0  0
 15 29  1  0  0  0  0
 17 30  1  0  0  0  0
 18 31  1  0  0  0  0
 21 32  1  0  0  0  0
M  END
> <BIOSOLVEIT.HYDE_ESTIMATED_AFFINITY_LOWER_BOUNDARY [nM]>
58688695.198874

> <BIOSOLVEIT.HYDE_ESTIMATED_AFFINITY_UPPER_BOUNDARY [nM]>
5831068863.035747

> <BIOSOLVEIT.HYDE_LIGAND_EFFICIENCY range: ++, +, 0, -, -->
--

> <BIOSOLVEIT.HYDE_LIGAND_LIPOPHILIC_EFFICIENCY range: ++, +, 0, -, -->
--

> <BIOSOLVEIT.INTER_CLASH range: red, yellow, green>
green

> <BIOSOLVEIT.INTRA_CLASH range: red, yellow, green>
green

> <BIOSOLVEIT.LOGP>
2.9732

> <BIOSOLVEIT.MOLECULAR WEIGHT>
324.166

> <BIOSOLVEIT.MOLECULE_CHECKSUM>
LTEuMzI5MTswLjA2MzI5MDY=

> <BIOSOLVEIT.TORSION_QUALITY range: red, yellow, green, not rotatable>
yellow

> <BIOSOLVEIT.TPSA>
64.11

> <BIOSOLVEIT.SEESAR_FAVORITE>
favorite

> <smc_score>
0.75

> <QED_score>
0.922

> <distance>
0.652

> <SimilarityPheSA_1>
0.675

> <Smiles>
O=C(Nc1cncnc1)C1COc2cc(Cl)c(Cl)cc2C1

> <Similarity_SkelSpheres>
0.687

> <Cluster No>
67.0

> <QueryID>
JAG-UCB-a3ef7265-20

> <SimilarityPheSA>
0.6749

> <Postera series>
3-aminopyridine-like

> <PDB_code>
Mpro-x10324

> <Approach>
DGM_focussed_RL

> <ID>
20210618_144

> <SimilarityPheSA_2>
0.746

> <OPTIBRIUM.logD>
3.4447

> <OPTIBRIUM.BBB category>
-

> <OPTIBRIUM.logP>
3.4447

> <OPTIBRIUM.P-gp category>
no

> <OPTIBRIUM.logS>
1.28064

> <OPTIBRIUM.HIA category>
+

> <OPTIBRIUM.PPB90 category>
high

> <OPTIBRIUM.2D6 affinity category>
high

> <OPTIBRIUM.hERG pIC50>
4.63529

> <OPTIBRIUM.2C9 pKi>
5.08819

> <OPTIBRIUM.BBB log([brain]:[blood])>
-0.0870978

> <OPTIBRIUM.logS @ pH7.4>
1.28064

$$$$
Compound 145_1_09
haSeeSAR  07122111353D 1   1.00000     0.00000     0
SeeSAR 11.0.2 hazemaj
 32 34  0  0  0  0            999 V2000
   10.8270    6.2381   23.1542 Cl  0  0  0  0  0  0  0  0  0  0  0  0
   10.1490    4.5992   23.3048 C   0  0  0  0  0  0  0  0  0  0  0  0
    8.8278    4.4308   23.7076 C   0  0  0  0  0  0  0  0  0  0  0  0
   10.9175    3.4733   23.0231 C   0  0  0  0  0  0  0  0  0  0  0  0
    7.8063    5.8414   24.0742 Cl  0  0  0  0  0  0  0  0  0  0  0  0
    8.2737    3.1613   23.8305 C   0  0  0  0  0  0  0  0  0  0  0  0
   10.3782    2.1904   23.1222 C   0  0  0  0  0  0  0  0  0  0  0  0
    9.0532    2.0509   23.5200 C   0  0  0  0  0  0  0  0  0  0  0  0
   11.0822    1.0675   22.8419 O   0  0  0  0  0  0  0  0  0  0  0  0
    8.4689    0.6485   23.6000 C   0  0  0  0  0  0  0  0  0  0  0  0
   10.4934   -0.0835   22.2423 C   0  0  0  0  0  0  0  0  0  0  0  0
    8.9820   -0.1650   22.4187 C   0  0  2  0  0  0  0  0  0  0  0  0
    8.2658    0.2107   21.1335 C   0  0  0  0  0  0  0  0  0  0  0  0
    8.8308    0.9160   20.2975 O   0  0  0  0  0  0  0  0  0  0  0  0
    7.0345   -0.2198   20.9121 N   0  0  0  0  0  0  0  0  0  0  0  0
    6.3745    0.1265   19.7279 C   0  0  0  0  0  0  0  0  0  0  0  0
    5.2269    0.9121   19.7652 C   0  0  0  0  0  0  0  0  0  0  0  0
    6.8440   -0.3030   18.4913 C   0  0  0  0  0  0  0  0  0  0  0  0
    4.6112    1.2308   18.6170 N   0  0  0  0  0  0  0  0  0  0  0  0
    6.1826    0.0499   17.3790 N   0  0  0  0  0  0  0  0  0  0  0  0
    5.0777    0.8086   17.4327 C   0  0  0  0  0  0  0  0  0  0  0  0
   11.8714    3.5858   22.7451 H   0  0  0  0  0  0  0  0  0  0  0  0
    7.3287    3.0479   24.1376 H   0  0  0  0  0  0  0  0  0  0  0  0
    7.4707    0.6978   23.5660 H   0  0  0  0  0  0  0  0  0  0  0  0
    8.7523    0.2146   24.4553 H   0  0  0  0  0  0  0  0  0  0  0  0
   10.9030   -0.8977   22.6539 H   0  0  0  0  0  0  0  0  0  0  0  0
   10.6959   -0.0672   21.2631 H   0  0  0  0  0  0  0  0  0  0  0  0
    8.7615   -1.1222   22.6061 H   0  0  0  0  0  0  0  0  0  0  0  0
    6.5755   -0.7927   21.5912 H   0  0  0  0  0  0  0  0  0  0  0  0
    4.8648    1.2359   20.6393 H   0  0  0  0  0  0  0  0  0  0  0  0
    7.6662   -0.8691   18.4321 H   0  0  0  0  0  0  0  0  0  0  0  0
    4.6018    1.0593   16.5896 H   0  0  0  0  0  0  0  0  0  0  0  0
  1  2  1  0  0  0  0
  2  3  2  0  0  0  0
  2  4  1  0  0  0  0
  3  5  1  0  0  0  0
  3  6  1  0  0  0  0
  4  7  2  0  0  0  0
  6  8  2  0  0  0  0
  7  9  1  0  0  0  0
  8 10  1  0  0  0  0
  9 11  1  0  0  0  0
 10 12  1  0  0  0  0
 12 13  1  0  0  0  0
 13 14  2  0  0  0  0
 13 15  1  0  0  0  0
 15 16  1  0  0  0  0
 16 17  2  0  0  0  0
 16 18  1  0  0  0  0
 17 19  1  0  0  0  0
 18 20  2  0  0  0  0
 19 21  2  0  0  0  0
  7  8  1  0  0  0  0
 11 12  1  0  0  0  0
 20 21  1  0  0  0  0
  4 22  1  0  0  0  0
  6 23  1  0  0  0  0
 10 24  1  0  0  0  0
 10 25  1  0  0  0  0
 11 26  1  0  0  0  0
 11 27  1  0  0  0  0
 12 28  1  0  0  0  0
 15 29  1  0  0  0  0
 17 30  1  0  0  0  0
 18 31  1  0  0  0  0
 21 32  1  0  0  0  0
M  END
> <BIOSOLVEIT.HYDE_ESTIMATED_AFFINITY_LOWER_BOUNDARY [nM]>
58697760.343972

> <BIOSOLVEIT.HYDE_ESTIMATED_AFFINITY_UPPER_BOUNDARY [nM]>
5831969538.798643

> <BIOSOLVEIT.HYDE_LIGAND_EFFICIENCY range: ++, +, 0, -, -->
--

> <BIOSOLVEIT.HYDE_LIGAND_LIPOPHILIC_EFFICIENCY range: ++, +, 0, -, -->
--

> <BIOSOLVEIT.INTER_CLASH range: red, yellow, green>
green

> <BIOSOLVEIT.INTRA_CLASH range: red, yellow, green>
green

> <BIOSOLVEIT.LOGP>
2.9732

> <BIOSOLVEIT.MOLECULAR WEIGHT>
324.166

> <BIOSOLVEIT.MOLECULE_CHECKSUM>
LTEuMzI4NzI7MC4wNjMyNzI0

> <BIOSOLVEIT.TORSION_QUALITY range: red, yellow, green, not rotatable>
yellow

> <BIOSOLVEIT.TPSA>
64.11

> <BIOSOLVEIT.SEESAR_FAVORITE>
favorite

> <smc_score>
0.75

> <QED_score>
0.922

> <distance>
0.652

> <SimilarityPheSA_1>
0.675

> <Smiles>
O=C(Nc1cncnc1)C1COc2cc(Cl)c(Cl)cc2C1

> <Similarity_SkelSpheres>
0.687

> <Cluster No>
67.0

> <QueryID>
JAG-UCB-a3ef7265-20

> <SimilarityPheSA>
0.6749

> <Postera series>
3-aminopyridine-like

> <PDB_code>
Mpro-x10324

> <Approach>
DGM_focussed_RL

> <ID>
20210618_144

> <SimilarityPheSA_2>
0.746

> <OPTIBRIUM.logD>
3.4447

> <OPTIBRIUM.BBB category>
-

> <OPTIBRIUM.logP>
3.4447

> <OPTIBRIUM.P-gp category>
no

> <OPTIBRIUM.logS>
1.28064

> <OPTIBRIUM.HIA category>
+

> <OPTIBRIUM.PPB90 category>
high

> <OPTIBRIUM.2D6 affinity category>
high

> <OPTIBRIUM.hERG pIC50>
4.63529

> <OPTIBRIUM.2C9 pKi>
5.08819

> <OPTIBRIUM.BBB log([brain]:[blood])>
-0.0870978

> <OPTIBRIUM.logS @ pH7.4>
1.28064

$$$$
Compound 36_1_04
haSeeSAR  07122111353D 1   1.00000     0.00000     0
SeeSAR 11.0.2 hazemaj
 46 49  0  0  0  0            999 V2000
    6.4332   -3.3043   22.1162 Cl  0  0  0  0  0  0  0  0  0  0  0  0
    6.8982   -3.8646   23.7405 C   0  0  0  0  0  0  0  0  0  0  0  0
    8.2158   -3.7610   24.1758 C   0  0  0  0  0  0  0  0  0  0  0  0
    5.9168   -4.4069   24.5639 C   0  0  0  0  0  0  0  0  0  0  0  0
    8.5482   -4.2075   25.4514 C   0  0  0  0  0  0  0  0  0  0  0  0
    9.2739   -3.1649   23.2612 C   0  0  0  0  0  0  0  0  0  0  0  0
    6.2689   -4.8473   25.8356 C   0  0  0  0  0  0  0  0  0  0  0  0
    9.8082   -4.1081   25.8669 F   0  0  0  0  0  0  0  0  0  0  0  0
    7.5805   -4.7522   26.2891 C   0  0  0  0  0  0  0  0  0  0  0  0
    9.6073   -1.8066   23.7170 N   0  3  2  0  0  0  0  0  0  0  0  0
    5.0329   -5.5453   26.9094 Cl  0  0  0  0  0  0  0  0  0  0  0  0
    8.4433   -0.9720   23.4160 C   0  0  0  0  0  0  0  0  0  0  0  0
   10.6638   -1.3222   22.8259 C   0  0  0  0  0  0  0  0  0  0  0  0
    8.9883    0.3795   22.9958 C   0  0  1  0  0  0  0  0  0  0  0  0
   10.4846    0.1823   22.8529 C   0  0  0  0  0  0  0  0  0  0  0  0
    8.3581    0.7347   21.6585 C   0  0  0  0  0  0  0  0  0  0  0  0
    8.9584    1.4646   20.8697 O   0  0  0  0  0  0  0  0  0  0  0  0
    7.1646    0.2593   21.3426 N   0  0  0  0  0  0  0  0  0  0  0  0
    6.5841    0.5864   20.1107 C   0  0  0  0  0  0  0  0  0  0  0  0
    5.3987    1.3110   20.0072 C   0  0  0  0  0  0  0  0  0  0  0  0
    7.2231    0.1671   18.9483 C   0  0  0  0  0  0  0  0  0  0  0  0
    4.8758    1.6026   18.7527 C   0  0  0  0  0  0  0  0  0  0  0  0
    4.7004    1.7649   21.1223 C   0  0  0  0  0  0  0  0  0  0  0  0
    6.7021    0.4587   17.7470 N   0  0  0  0  0  0  0  0  0  0  0  0
    5.5620    1.1548   17.6284 C   0  0  0  0  0  0  0  0  0  0  0  0
    3.6917    2.3272   18.6606 C   0  0  0  0  0  0  0  0  0  0  0  0
    3.5185    2.4869   20.9912 C   0  0  0  0  0  0  0  0  0  0  0  0
    3.0495    2.7466   19.7612 N   0  0  0  0  0  0  0  0  0  0  0  0
    4.9715   -4.4793   24.2460 H   0  0  0  0  0  0  0  0  0  0  0  0
    8.9223   -3.1256   22.3259 H   0  0  0  0  0  0  0  0  0  0  0  0
   10.0948   -3.7354   23.2850 H   0  0  0  0  0  0  0  0  0  0  0  0
    7.8243   -5.0711   27.2049 H   0  0  0  0  0  0  0  0  0  0  0  0
    7.8665   -0.8761   24.2273 H   0  0  0  0  0  0  0  0  0  0  0  0
    7.9095   -1.3766   22.6735 H   0  0  0  0  0  0  0  0  0  0  0  0
   10.5431   -1.6803   21.9002 H   0  0  0  0  0  0  0  0  0  0  0  0
   11.5671   -1.5809   23.1683 H   0  0  0  0  0  0  0  0  0  0  0  0
    8.7840    1.0765   23.6833 H   0  0  0  0  0  0  0  0  0  0  0  0
   10.8165    0.5937   22.0040 H   0  0  0  0  0  0  0  0  0  0  0  0
   10.9705    0.5830   23.6297 H   0  0  0  0  0  0  0  0  0  0  0  0
    6.6770   -0.3337   21.9834 H   0  0  0  0  0  0  0  0  0  0  0  0
    8.0745   -0.3539   19.0084 H   0  0  0  0  0  0  0  0  0  0  0  0
    5.0555    1.5682   22.0363 H   0  0  0  0  0  0  0  0  0  0  0  0
    5.1996    1.3552   16.7181 H   0  0  0  0  0  0  0  0  0  0  0  0
    3.3132    2.5386   17.7594 H   0  0  0  0  0  0  0  0  0  0  0  0
    3.0263    2.8071   21.8007 H   0  0  0  0  0  0  0  0  0  0  0  0
    9.8685   -1.7744   24.6818 H   0  0  0  0  0  0  0  0  0  0  0  0
  1  2  1  0  0  0  0
  2  3  2  0  0  0  0
  2  4  1  0  0  0  0
  3  5  1  0  0  0  0
  3  6  1  0  0  0  0
  4  7  2  0  0  0  0
  5  8  1  0  0  0  0
  5  9  2  0  0  0  0
  6 10  1  0  0  0  0
  7 11  1  0  0  0  0
 10 12  1  0  0  0  0
 10 13  1  0  0  0  0
 12 14  1  0  0  0  0
 13 15  1  0  0  0  0
 14 16  1  0  0  0  0
 16 17  2  0  0  0  0
 16 18  1  0  0  0  0
 18 19  1  0  0  0  0
 19 20  1  0  0  0  0
 19 21  2  0  0  0  0
 20 22  1  0  0  0  0
 20 23  2  0  0  0  0
 21 24  1  0  0  0  0
 22 25  1  0  0  0  0
 22 26  2  0  0  0  0
 23 27  1  0  0  0  0
 26 28  1  0  0  0  0
  7  9  1  0  0  0  0
 14 15  1  0  0  0  0
 24 25  2  0  0  0  0
 27 28  2  0  0  0  0
  4 29  1  0  0  0  0
  6 30  1  0  0  0  0
  6 31  1  0  0  0  0
  9 32  1  0  0  0  0
 12 33  1  0  0  0  0
 12 34  1  0  0  0  0
 13 35  1  0  0  0  0
 13 36  1  0  0  0  0
 14 37  1  0  0  0  0
 15 38  1  0  0  0  0
 15 39  1  0  0  0  0
 18 40  1  0  0  0  0
 21 41  1  0  0  0  0
 23 42  1  0  0  0  0
 25 43  1  0  0  0  0
 26 44  1  0  0  0  0
 27 45  1  0  0  0  0
 10 46  1  0  0  0  0
M  CHG  1  10   1
M  END
> <BIOSOLVEIT.HYDE_ESTIMATED_AFFINITY_LOWER_BOUNDARY [nM]>
69003627.888515

> <BIOSOLVEIT.HYDE_ESTIMATED_AFFINITY_UPPER_BOUNDARY [nM]>
6855918412.460223

> <BIOSOLVEIT.HYDE_LIGAND_EFFICIENCY range: ++, +, 0, -, -->
--

> <BIOSOLVEIT.HYDE_LIGAND_LIPOPHILIC_EFFICIENCY range: ++, +, 0, -, -->
--

> <BIOSOLVEIT.INTER_CLASH range: red, yellow, green>
green

> <BIOSOLVEIT.INTRA_CLASH range: red, yellow, green>
green

> <BIOSOLVEIT.LOGP>
3.1192

> <BIOSOLVEIT.MOLECULAR WEIGHT>
420.293

> <BIOSOLVEIT.MOLECULE_CHECKSUM>
LTAuOTI3NzM7MC4wMzMxMzMy

> <BIOSOLVEIT.TORSION_QUALITY range: red, yellow, green, not rotatable>
green

> <BIOSOLVEIT.TPSA>
59.32

> <BIOSOLVEIT.SEESAR_FAVORITE>
favorite

> <smc_score>
0.688

> <QED_score>
0.675

> <distance>
0.541

> <SimilarityPheSA_1>
0.638

> <Smiles>
O=C(Nc1cncc2cnccc12)C1CCN(Cc2c(F)cc(Cl)cc2Cl)C1

> <Similarity_SkelSpheres>
0.775

> <Cluster No>
18.0

> <QueryID>
MAT-POS-bb423b95-1

> <SimilarityPheSA>
0.6383

> <Postera series>
3-aminopyridine-like

> <PDB_code>
Mpro-x11542

> <Approach>
DGM_focussed_RL

> <ID>
20210618_35

> <SimilarityPheSA_2>
0.741

> <OPTIBRIUM.logD>
2.60539

> <OPTIBRIUM.BBB category>
-

> <OPTIBRIUM.logP>
2.51247

> <OPTIBRIUM.P-gp category>
yes

> <OPTIBRIUM.logS>
1.20941

> <OPTIBRIUM.HIA category>
+

> <OPTIBRIUM.PPB90 category>
high

> <OPTIBRIUM.2D6 affinity category>
high

> <OPTIBRIUM.hERG pIC50>
5.15418

> <OPTIBRIUM.2C9 pKi>
5.54286

> <OPTIBRIUM.BBB log([brain]:[blood])>
-0.502723

> <OPTIBRIUM.logS @ pH7.4>
1.8643

$$$$
Compound 1476_1_10
haSeeSAR  07122111353D 1   1.00000     0.00000     0
SeeSAR 11.0.2 hazemaj
 40 42  0  0  0  0            999 V2000
    5.2885    4.5701   24.8734 Cl  0  0  0  0  0  0  0  0  0  0  0  0
    6.3204    3.1832   25.2993 C   0  0  0  0  0  0  0  0  0  0  0  0
    6.2205    2.6030   26.5594 C   0  0  0  0  0  0  0  0  0  0  0  0
    7.2207    2.6885   24.3627 C   0  0  0  0  0  0  0  0  0  0  0  0
    5.0605    3.2560   27.7407 Cl  0  0  0  0  0  0  0  0  0  0  0  0
    7.0210    1.5178   26.9021 C   0  0  0  0  0  0  0  0  0  0  0  0
    8.0183    1.6042   24.7108 C   0  0  0  0  0  0  0  0  0  0  0  0
    7.9243    1.0196   25.9691 C   0  0  0  0  0  0  0  0  0  0  0  0
    9.0082    1.0498   23.6988 C   0  0  0  0  0  0  0  0  0  0  0  0
    8.3075    0.1524   22.7690 N   0  0  0  0  0  0  0  0  0  0  0  0
    8.3963    0.3515   21.4640 C   0  0  0  0  0  0  0  0  0  0  0  0
    9.0658    1.2882   21.0285 O   0  0  0  0  0  0  0  0  0  0  0  0
    7.6717   -0.5764   20.5027 C   0  0  0  0  0  0  0  0  0  0  0  0
    6.9213    0.2497   19.4693 C   0  0  0  0  0  0  0  0  0  0  0  0
    7.4015    0.2724   18.2371 N   0  0  0  0  0  0  0  0  0  0  0  0
    5.7428    0.9823   19.7882 C   0  0  0  0  0  0  0  0  0  0  0  0
    6.8221    0.9612   17.2692 N   0  0  0  0  0  0  0  0  0  0  0  0
    5.1132    1.7154   18.7879 C   0  0  0  0  0  0  0  0  0  0  0  0
    5.1895    0.9931   21.0663 C   0  0  0  0  0  0  0  0  0  0  0  0
    5.6854    1.6953   17.4853 C   0  0  0  0  0  0  0  0  0  0  0  0
    3.9587    2.4388   19.0793 C   0  0  0  0  0  0  0  0  0  0  0  0
    4.0373    1.7173   21.3498 C   0  0  0  0  0  0  0  0  0  0  0  0
    5.2037    2.3080   16.5438 O   0  0  0  0  0  0  0  0  0  0  0  0
    3.4055    2.4521   20.3543 C   0  0  0  0  0  0  0  0  0  0  0  0
    3.4665    1.7037   22.7576 C   0  0  0  0  0  0  0  0  0  0  0  0
    7.2931    3.1044   23.4562 H   0  0  0  0  0  0  0  0  0  0  0  0
    6.9478    1.1011   27.8082 H   0  0  0  0  0  0  0  0  0  0  0  0
    8.5062    0.2407   26.2032 H   0  0  0  0  0  0  0  0  0  0  0  0
    9.7242    0.5412   24.1771 H   0  0  0  0  0  0  0  0  0  0  0  0
    9.4199    1.8041   23.1875 H   0  0  0  0  0  0  0  0  0  0  0  0
    7.7636   -0.6086   23.1228 H   0  0  0  0  0  0  0  0  0  0  0  0
    7.0234   -1.1431   21.0112 H   0  0  0  0  0  0  0  0  0  0  0  0
    8.3369   -1.1634   20.0410 H   0  0  0  0  0  0  0  0  0  0  0  0
    5.6301    0.4689   21.7951 H   0  0  0  0  0  0  0  0  0  0  0  0
    3.5161    2.9626   18.3516 H   0  0  0  0  0  0  0  0  0  0  0  0
    2.5761    2.9756   20.5494 H   0  0  0  0  0  0  0  0  0  0  0  0
    2.6437    2.2711   22.7893 H   0  0  0  0  0  0  0  0  0  0  0  0
    3.2344    0.7654   23.0140 H   0  0  0  0  0  0  0  0  0  0  0  0
    4.1457    2.0655   23.3962 H   0  0  0  0  0  0  0  0  0  0  0  0
    4.3582    2.8277   16.6656 H   0  0  0  0  0  0  0  0  0  0  0  0
  1  2  1  0  0  0  0
  2  3  2  0  0  0  0
  2  4  1  0  0  0  0
  3  5  1  0  0  0  0
  3  6  1  0  0  0  0
  4  7  2  0  0  0  0
  6  8  2  0  0  0  0
  7  9  1  0  0  0  0
  9 10  1  0  0  0  0
 10 11  1  0  0  0  0
 11 12  2  0  0  0  0
 11 13  1  0  0  0  0
 13 14  1  0  0  0  0
 14 15  2  0  0  0  0
 14 16  1  0  0  0  0
 15 17  1  0  0  0  0
 16 18  2  0  0  0  0
 16 19  1  0  0  0  0
 17 20  2  0  0  0  0
 18 21  1  0  0  0  0
 19 22  2  0  0  0  0
 20 23  1  0  0  0  0
 21 24  2  0  0  0  0
 22 25  1  0  0  0  0
  7  8  1  0  0  0  0
 18 20  1  0  0  0  0
 22 24  1  0  0  0  0
  4 26  1  0  0  0  0
  6 27  1  0  0  0  0
  8 28  1  0  0  0  0
  9 29  1  0  0  0  0
  9 30  1  0  0  0  0
 10 31  1  0  0  0  0
 13 32  1  0  0  0  0
 13 33  1  0  0  0  0
 25 39  1  0  0  0  0
 19 34  1  0  0  0  0
 21 35  1  0  0  0  0
 24 36  1  0  0  0  0
 25 37  1  0  0  0  0
 25 38  1  0  0  0  0
 23 40  1  0  0  0  0
M  END
> <BIOSOLVEIT.HYDE_ESTIMATED_AFFINITY_LOWER_BOUNDARY [nM]>
189977451.104755

> <BIOSOLVEIT.HYDE_ESTIMATED_AFFINITY_UPPER_BOUNDARY [nM]>
18875383002.842583

> <BIOSOLVEIT.HYDE_LIGAND_EFFICIENCY range: ++, +, 0, -, -->
--

> <BIOSOLVEIT.HYDE_LIGAND_LIPOPHILIC_EFFICIENCY range: ++, +, 0, -, -->
--

> <BIOSOLVEIT.INTER_CLASH range: red, yellow, green>
green

> <BIOSOLVEIT.INTRA_CLASH range: red, yellow, green>
green

> <BIOSOLVEIT.LOGP>
3.80952

> <BIOSOLVEIT.MOLECULAR WEIGHT>
376.242

> <BIOSOLVEIT.MOLECULE_CHECKSUM>
MS41ODI4Mjsw

> <BIOSOLVEIT.TORSION_QUALITY range: red, yellow, green, not rotatable>
green

> <BIOSOLVEIT.TPSA>
75.11

> <BIOSOLVEIT.SEESAR_FAVORITE>
favorite

> <smc_score>
0.625

> <QED_score>
0.733

> <distance>
0.645

> <SimilarityPheSA_1>
0.663

> <Smiles>
Cc1ccc2c(=O)[nH]nc(CC(=O)NCc3ccc(Cl)c(Cl)c3)c2c1

> <Similarity_SkelSpheres>
0.644

> <Cluster No>
330.0

> <QueryID>
MAT-POS-f7918075-5

> <SimilarityPheSA>
0.6628

> <Postera series>
3-aminopyridine-like

> <PDB_code>
Mpro-x11499

> <Approach>
DGM_exploratory_RL

> <ID>
20210628_746

> <SimilarityPheSA_2>
0.713

> <OPTIBRIUM.logD>
3.28823

> <OPTIBRIUM.BBB category>
-

> <OPTIBRIUM.logP>
3.28823

> <OPTIBRIUM.P-gp category>
no

> <OPTIBRIUM.logS>
0.54752

> <OPTIBRIUM.HIA category>
+

> <OPTIBRIUM.PPB90 category>
high

> <OPTIBRIUM.2D6 affinity category>
medium

> <OPTIBRIUM.hERG pIC50>
4.62754

> <OPTIBRIUM.2C9 pKi>
5.55485

> <OPTIBRIUM.BBB log([brain]:[blood])>
-0.926787

> <OPTIBRIUM.logS @ pH7.4>
0.54752

$$$$
Compound 36_1_05
haSeeSAR  07122111353D 1   1.00000     0.00000     0
SeeSAR 11.0.2 hazemaj
 46 49  0  0  0  0            999 V2000
    6.5627   -3.3744   22.2464 Cl  0  0  0  0  0  0  0  0  0  0  0  0
    7.2437   -4.0608   23.7408 C   0  0  0  0  0  0  0  0  0  0  0  0
    8.5844   -3.8706   24.0614 C   0  0  0  0  0  0  0  0  0  0  0  0
    6.4074   -4.7899   24.5799 C   0  0  0  0  0  0  0  0  0  0  0  0
    9.0874   -4.4194   25.2373 C   0  0  0  0  0  0  0  0  0  0  0  0
    9.4822   -3.0702   23.1315 C   0  0  0  0  0  0  0  0  0  0  0  0
    6.9290   -5.3302   25.7509 C   0  0  0  0  0  0  0  0  0  0  0  0
   10.3693   -4.2371   25.5433 F   0  0  0  0  0  0  0  0  0  0  0  0
    8.2662   -5.1510   26.0891 C   0  0  0  0  0  0  0  0  0  0  0  0
    9.6646   -1.7146   23.6727 N   0  3  2  0  0  0  0  0  0  0  0  0
    5.8809   -6.2673   26.8424 Cl  0  0  0  0  0  0  0  0  0  0  0  0
    8.4385   -0.9775   23.3638 C   0  0  0  0  0  0  0  0  0  0  0  0
   10.7042   -1.0831   22.8568 C   0  0  0  0  0  0  0  0  0  0  0  0
    8.8669    0.4410   23.0403 C   0  0  1  0  0  0  0  0  0  0  0  0
   10.3798    0.3938   22.9547 C   0  0  0  0  0  0  0  0  0  0  0  0
    8.2592    0.8104   21.6964 C   0  0  0  0  0  0  0  0  0  0  0  0
    8.8512    1.5857   20.9455 O   0  0  0  0  0  0  0  0  0  0  0  0
    7.0943    0.2985   21.3341 N   0  0  0  0  0  0  0  0  0  0  0  0
    6.5346    0.6388   20.0961 C   0  0  0  0  0  0  0  0  0  0  0  0
    5.3524    1.3669   19.9804 C   0  0  0  0  0  0  0  0  0  0  0  0
    7.1916    0.2295   18.9402 C   0  0  0  0  0  0  0  0  0  0  0  0
    4.8505    1.6717   18.7205 C   0  0  0  0  0  0  0  0  0  0  0  0
    4.6369    1.8114   21.0884 C   0  0  0  0  0  0  0  0  0  0  0  0
    6.6906    0.5338   17.7336 N   0  0  0  0  0  0  0  0  0  0  0  0
    5.5540    1.2335   17.6032 C   0  0  0  0  0  0  0  0  0  0  0  0
    3.6695    2.3996   18.6162 C   0  0  0  0  0  0  0  0  0  0  0  0
    3.4586    2.5371   20.9452 C   0  0  0  0  0  0  0  0  0  0  0  0
    3.0103    2.8097   19.7103 N   0  0  0  0  0  0  0  0  0  0  0  0
    5.4448   -4.9238   24.3447 H   0  0  0  0  0  0  0  0  0  0  0  0
    9.0596   -3.0139   22.2270 H   0  0  0  0  0  0  0  0  0  0  0  0
   10.3714   -3.5216   23.0565 H   0  0  0  0  0  0  0  0  0  0  0  0
    8.6324   -5.5428   26.9331 H   0  0  0  0  0  0  0  0  0  0  0  0
    7.8233   -0.9823   24.1522 H   0  0  0  0  0  0  0  0  0  0  0  0
    7.9762   -1.3878   22.5778 H   0  0  0  0  0  0  0  0  0  0  0  0
   10.6555   -1.3980   21.9090 H   0  0  0  0  0  0  0  0  0  0  0  0
   11.6138   -1.2747   23.2254 H   0  0  0  0  0  0  0  0  0  0  0  0
    8.5691    1.0755   23.7534 H   0  0  0  0  0  0  0  0  0  0  0  0
   10.7040    0.8820   22.1444 H   0  0  0  0  0  0  0  0  0  0  0  0
   10.7934    0.7938   23.7725 H   0  0  0  0  0  0  0  0  0  0  0  0
    6.6134   -0.3312   21.9440 H   0  0  0  0  0  0  0  0  0  0  0  0
    8.0408   -0.2938   19.0091 H   0  0  0  0  0  0  0  0  0  0  0  0
    4.9768    1.6051   22.0060 H   0  0  0  0  0  0  0  0  0  0  0  0
    5.2068    1.4433   16.6891 H   0  0  0  0  0  0  0  0  0  0  0  0
    3.3060    2.6207   17.7111 H   0  0  0  0  0  0  0  0  0  0  0  0
    2.9539    2.8504   21.7496 H   0  0  0  0  0  0  0  0  0  0  0  0
    9.8828   -1.7126   24.6486 H   0  0  0  0  0  0  0  0  0  0  0  0
  1  2  1  0  0  0  0
  2  3  2  0  0  0  0
  2  4  1  0  0  0  0
  3  5  1  0  0  0  0
  3  6  1  0  0  0  0
  4  7  2  0  0  0  0
  5  8  1  0  0  0  0
  5  9  2  0  0  0  0
  6 10  1  0  0  0  0
  7 11  1  0  0  0  0
 10 12  1  0  0  0  0
 10 13  1  0  0  0  0
 12 14  1  0  0  0  0
 13 15  1  0  0  0  0
 14 16  1  0  0  0  0
 16 17  2  0  0  0  0
 16 18  1  0  0  0  0
 18 19  1  0  0  0  0
 19 20  1  0  0  0  0
 19 21  2  0  0  0  0
 20 22  1  0  0  0  0
 20 23  2  0  0  0  0
 21 24  1  0  0  0  0
 22 25  1  0  0  0  0
 22 26  2  0  0  0  0
 23 27  1  0  0  0  0
 26 28  1  0  0  0  0
  7  9  1  0  0  0  0
 14 15  1  0  0  0  0
 24 25  2  0  0  0  0
 27 28  2  0  0  0  0
  4 29  1  0  0  0  0
  6 30  1  0  0  0  0
  6 31  1  0  0  0  0
  9 32  1  0  0  0  0
 12 33  1  0  0  0  0
 12 34  1  0  0  0  0
 13 35  1  0  0  0  0
 13 36  1  0  0  0  0
 14 37  1  0  0  0  0
 15 38  1  0  0  0  0
 15 39  1  0  0  0  0
 18 40  1  0  0  0  0
 21 41  1  0  0  0  0
 23 42  1  0  0  0  0
 25 43  1  0  0  0  0
 26 44  1  0  0  0  0
 27 45  1  0  0  0  0
 10 46  1  0  0  0  0
M  CHG  1  10   1
M  END
> <BIOSOLVEIT.HYDE_ESTIMATED_AFFINITY_LOWER_BOUNDARY [nM]>
283528402.602919

> <BIOSOLVEIT.HYDE_ESTIMATED_AFFINITY_UPPER_BOUNDARY [nM]>
28170223151.184650

> <BIOSOLVEIT.HYDE_LIGAND_EFFICIENCY range: ++, +, 0, -, -->
--

> <BIOSOLVEIT.HYDE_LIGAND_LIPOPHILIC_EFFICIENCY range: ++, +, 0, -, -->
--

> <BIOSOLVEIT.INTER_CLASH range: red, yellow, green>
green

> <BIOSOLVEIT.INTRA_CLASH range: red, yellow, green>
green

> <BIOSOLVEIT.LOGP>
3.1192

> <BIOSOLVEIT.MOLECULAR WEIGHT>
420.293

> <BIOSOLVEIT.MOLECULE_CHECKSUM>
Mi41NzU0Mjsw

> <BIOSOLVEIT.TORSION_QUALITY range: red, yellow, green, not rotatable>
green

> <BIOSOLVEIT.TPSA>
59.32

> <BIOSOLVEIT.SEESAR_FAVORITE>
favorite

> <smc_score>
0.688

> <QED_score>
0.675

> <distance>
0.541

> <SimilarityPheSA_1>
0.638

> <Smiles>
O=C(Nc1cncc2cnccc12)C1CCN(Cc2c(F)cc(Cl)cc2Cl)C1

> <Similarity_SkelSpheres>
0.775

> <Cluster No>
18.0

> <QueryID>
MAT-POS-bb423b95-1

> <SimilarityPheSA>
0.6383

> <Postera series>
3-aminopyridine-like

> <PDB_code>
Mpro-x11542

> <Approach>
DGM_focussed_RL

> <ID>
20210618_35

> <SimilarityPheSA_2>
0.741

> <OPTIBRIUM.logD>
2.60539

> <OPTIBRIUM.BBB category>
-

> <OPTIBRIUM.logP>
2.51247

> <OPTIBRIUM.P-gp category>
yes

> <OPTIBRIUM.logS>
1.20941

> <OPTIBRIUM.HIA category>
+

> <OPTIBRIUM.PPB90 category>
high

> <OPTIBRIUM.2D6 affinity category>
high

> <OPTIBRIUM.hERG pIC50>
5.15418

> <OPTIBRIUM.2C9 pKi>
5.54286

> <OPTIBRIUM.BBB log([brain]:[blood])>
-0.502723

> <OPTIBRIUM.logS @ pH7.4>
1.8643

$$$$
Compound 717_1_05
haSeeSAR  07122111353D 1   1.00000     0.00000     0
SeeSAR 11.0.2 hazemaj
 43 46  0  0  0  0            999 V2000
   10.7975    5.9819   22.8247 Cl  0  0  0  0  0  0  0  0  0  0  0  0
    9.8591    4.5555   23.3290 C   0  0  0  0  0  0  0  0  0  0  0  0
    8.6585    4.7187   24.0120 C   0  0  0  0  0  0  0  0  0  0  0  0
   10.3364    3.2840   23.0324 C   0  0  0  0  0  0  0  0  0  0  0  0
    8.0699    6.3574   24.3803 Cl  0  0  0  0  0  0  0  0  0  0  0  0
    7.9163    3.6108   24.4093 C   0  0  0  0  0  0  0  0  0  0  0  0
    9.5909    2.1806   23.4323 C   0  0  0  0  0  0  0  0  0  0  0  0
    8.3900    2.3364   24.1161 C   0  0  0  0  0  0  0  0  0  0  0  0
   10.0975    0.7826   23.1160 C   0  0  0  0  0  0  0  0  0  0  0  0
    9.0075   -0.0133   22.5320 N   0  0  0  0  0  0  0  0  0  0  0  0
    8.2907    0.4351   21.4143 C   0  0  0  0  0  0  0  0  0  0  0  0
    8.6691   -1.3027   23.1540 C   0  0  0  0  0  0  0  0  0  0  0  0
    8.5827    1.5124   20.9197 O   0  0  0  0  0  0  0  0  0  0  0  0
    7.2525   -0.3299   20.8649 N   0  0  0  0  0  0  0  0  0  0  0  0
    7.2039   -1.6531   22.9468 C   0  0  0  0  0  0  0  0  0  0  0  0
    6.5248    0.1127   19.7515 C   0  0  0  0  0  0  0  0  0  0  0  0
    6.9087   -1.6313   21.4554 C   0  0  0  0  0  0  0  0  0  0  0  0
    5.4257    0.9604   19.8577 C   0  0  0  0  0  0  0  0  0  0  0  0
    6.9198   -0.3159   18.4885 C   0  0  0  0  0  0  0  0  0  0  0  0
    4.7523    1.3577   18.7071 C   0  0  0  0  0  0  0  0  0  0  0  0
    4.9727    1.4316   21.0853 C   0  0  0  0  0  0  0  0  0  0  0  0
    6.2527    0.0808   17.3936 N   0  0  0  0  0  0  0  0  0  0  0  0
    5.1904    0.8976   17.4689 C   0  0  0  0  0  0  0  0  0  0  0  0
    3.6495    2.2034   18.7652 C   0  0  0  0  0  0  0  0  0  0  0  0
    3.8743    2.2782   21.1722 C   0  0  0  0  0  0  0  0  0  0  0  0
    3.2187    2.6585   20.0073 C   0  0  0  0  0  0  0  0  0  0  0  0
    3.4725    2.7072   22.3639 F   0  0  0  0  0  0  0  0  0  0  0  0
    2.1696    3.4673   20.1095 F   0  0  0  0  0  0  0  0  0  0  0  0
   11.1992    3.1653   22.5410 H   0  0  0  0  0  0  0  0  0  0  0  0
    7.0530    3.7296   24.8997 H   0  0  0  0  0  0  0  0  0  0  0  0
    7.8668    1.5318   24.3970 H   0  0  0  0  0  0  0  0  0  0  0  0
   10.4160    0.3452   23.9569 H   0  0  0  0  0  0  0  0  0  0  0  0
   10.8535    0.8415   22.4640 H   0  0  0  0  0  0  0  0  0  0  0  0
    8.8547   -1.2489   24.1351 H   0  0  0  0  0  0  0  0  0  0  0  0
    9.2353   -2.0188   22.7463 H   0  0  0  0  0  0  0  0  0  0  0  0
    6.6274   -0.9832   23.4145 H   0  0  0  0  0  0  0  0  0  0  0  0
    7.0201   -2.5650   23.3137 H   0  0  0  0  0  0  0  0  0  0  0  0
    7.4455   -2.3456   21.0062 H   0  0  0  0  0  0  0  0  0  0  0  0
    5.9347   -1.8071   21.3132 H   0  0  0  0  0  0  0  0  0  0  0  0
    7.7075   -0.9249   18.3956 H   0  0  0  0  0  0  0  0  0  0  0  0
    5.4465    1.1558   21.9216 H   0  0  0  0  0  0  0  0  0  0  0  0
    4.7135    1.1755   16.6350 H   0  0  0  0  0  0  0  0  0  0  0  0
    3.1749    2.4794   17.9293 H   0  0  0  0  0  0  0  0  0  0  0  0
  1  2  1  0  0  0  0
  2  3  2  0  0  0  0
  2  4  1  0  0  0  0
  3  5  1  0  0  0  0
  3  6  1  0  0  0  0
  4  7  2  0  0  0  0
  6  8  2  0  0  0  0
  7  9  1  0  0  0  0
  9 10  1  0  0  0  0
 10 11  1  0  0  0  0
 10 12  1  0  0  0  0
 11 13  2  0  0  0  0
 11 14  1  0  0  0  0
 12 15  1  0  0  0  0
 14 16  1  0  0  0  0
 14 17  1  0  0  0  0
 16 18  1  0  0  0  0
 16 19  2  0  0  0  0
 18 20  1  0  0  0  0
 18 21  2  0  0  0  0
 19 22  1  0  0  0  0
 20 23  1  0  0  0  0
 20 24  2  0  0  0  0
 21 25  1  0  0  0  0
 24 26  1  0  0  0  0
 25 27  1  0  0  0  0
 26 28  1  0  0  0  0
  7  8  1  0  0  0  0
 15 17  1  0  0  0  0
 22 23  2  0  0  0  0
 25 26  2  0  0  0  0
  4 29  1  0  0  0  0
  6 30  1  0  0  0  0
  8 31  1  0  0  0  0
  9 32  1  0  0  0  0
  9 33  1  0  0  0  0
 12 34  1  0  0  0  0
 12 35  1  0  0  0  0
 15 36  1  0  0  0  0
 15 37  1  0  0  0  0
 17 38  1  0  0  0  0
 17 39  1  0  0  0  0
 19 40  1  0  0  0  0
 21 41  1  0  0  0  0
 23 42  1  0  0  0  0
 24 43  1  0  0  0  0
M  END
> <BIOSOLVEIT.HYDE_ESTIMATED_AFFINITY_LOWER_BOUNDARY [nM]>
949024751.886105

> <BIOSOLVEIT.HYDE_ESTIMATED_AFFINITY_UPPER_BOUNDARY [nM]>
94291220178.285065

> <BIOSOLVEIT.HYDE_LIGAND_EFFICIENCY range: ++, +, 0, -, -->
--

> <BIOSOLVEIT.HYDE_LIGAND_LIPOPHILIC_EFFICIENCY range: ++, +, 0, -, -->
--

> <BIOSOLVEIT.INTER_CLASH range: red, yellow, green>
green

> <BIOSOLVEIT.INTRA_CLASH range: red, yellow, green>
yellow

> <BIOSOLVEIT.LOGP>
5.6521

> <BIOSOLVEIT.MOLECULAR WEIGHT>
422.261

> <BIOSOLVEIT.MOLECULE_CHECKSUM>
NS41NzAzOzA=

> <BIOSOLVEIT.TORSION_QUALITY range: red, yellow, green, not rotatable>
yellow

> <BIOSOLVEIT.TPSA>
36.44

> <BIOSOLVEIT.SEESAR_FAVORITE>
favorite

> <smc_score>
1.0

> <QED_score>
0.547

> <distance>
0.603

> <SimilarityPheSA_1>
0.788

> <Smiles>
O=C1N(Cc2ccc(Cl)c(Cl)c2)CCCN1c1cncc2cc(F)c(F)cc12

> <Similarity_SkelSpheres>
0.745

> <Cluster No>
406.0

> <QueryID>
PET-UNK-c9c1e0d8-3

> <SimilarityPheSA>
0.7878

> <Postera series>
3-aminopyridine-like

> <PDB_code>
Mpro-x12587

> <Approach>
DGM_focussed_RL

> <ID>
20210618_716

> <SimilarityPheSA_2>
0.883

> <OPTIBRIUM.logD>
4.40051

> <OPTIBRIUM.BBB category>
+

> <OPTIBRIUM.logP>
4.40051

> <OPTIBRIUM.P-gp category>
yes

> <OPTIBRIUM.logS>
-1.41467

> <OPTIBRIUM.HIA category>
+

> <OPTIBRIUM.PPB90 category>
high

> <OPTIBRIUM.2D6 affinity category>
medium

> <OPTIBRIUM.hERG pIC50>
6.26279

> <OPTIBRIUM.2C9 pKi>
6.0669

> <OPTIBRIUM.BBB log([brain]:[blood])>
0.0406193

> <OPTIBRIUM.logS @ pH7.4>
-1.41467

$$$$
Compound 661_1_08
haSeeSAR  07122111353D 1   1.00000     0.00000     0
SeeSAR 11.0.2 hazemaj
 40 43  0  0  0  0            999 V2000
    5.9932   -4.1053   22.3226 Cl  0  0  0  0  0  0  0  0  0  0  0  0
    7.3392   -3.2209   23.0846 C   0  0  0  0  0  0  0  0  0  0  0  0
    8.0024   -3.7050   24.2075 C   0  0  0  0  0  0  0  0  0  0  0  0
    7.7798   -2.0123   22.5580 C   0  0  0  0  0  0  0  0  0  0  0  0
    9.0608   -3.0049   24.7781 C   0  0  0  0  0  0  0  0  0  0  0  0
    8.8399   -1.3000   23.1157 C   0  0  0  0  0  0  0  0  0  0  0  0
    9.6509   -3.5282   25.8499 F   0  0  0  0  0  0  0  0  0  0  0  0
    9.4934   -1.7975   24.2346 C   0  0  0  0  0  0  0  0  0  0  0  0
    9.3324    0.0205   22.5422 C   0  0  2  0  0  0  0  0  0  0  0  0
   10.5276   -1.0867   24.7429 O   0  0  0  0  0  0  0  0  0  0  0  0
    8.9156    0.2647   21.1027 C   0  0  0  0  0  0  0  0  0  0  0  0
   10.8516   -0.0575   22.5398 C   0  0  0  0  0  0  0  0  0  0  0  0
   11.4376   -0.3792   23.9081 C   0  0  0  0  0  0  0  0  0  0  0  0
    8.7075    1.4121   20.7084 O   0  0  0  0  0  0  0  0  0  0  0  0
    8.7760   -0.7557   20.2723 N   0  0  0  0  0  0  0  0  0  0  0  0
    8.3725   -0.5193   18.8787 C   0  0  0  0  0  0  0  0  0  0  0  0
    7.0440    0.2212   18.8541 C   0  0  0  0  0  0  0  0  0  0  0  0
    6.6052    0.8574   17.7566 N   0  0  0  0  0  0  0  0  0  0  0  0
    6.2646    0.2375   20.0059 C   0  0  0  0  0  0  0  0  0  0  0  0
    5.4331    1.5111   17.7366 C   0  0  0  0  0  0  0  0  0  0  0  0
    5.0462    0.9076   20.0109 C   0  0  0  0  0  0  0  0  0  0  0  0
    4.6153    1.5578   18.8616 C   0  0  0  0  0  0  0  0  0  0  0  0
    4.2301    0.9541   21.1365 C   0  0  0  0  0  0  0  0  0  0  0  0
    3.4393    2.2039   18.8769 N   0  0  0  0  0  0  0  0  0  0  0  0
    3.0645    1.6151   21.0922 N   0  0  0  0  0  0  0  0  0  0  0  0
    2.6669    2.2375   19.9730 C   0  0  0  0  0  0  0  0  0  0  0  0
    7.7130   -4.5725   24.6123 H   0  0  0  0  0  0  0  0  0  0  0  0
    7.3204   -1.6412   21.7511 H   0  0  0  0  0  0  0  0  0  0  0  0
    9.0295    0.7787   23.1196 H   0  0  0  0  0  0  0  0  0  0  0  0
   11.2147    0.8239   22.2377 H   0  0  0  0  0  0  0  0  0  0  0  0
   11.1322   -0.7713   21.8982 H   0  0  0  0  0  0  0  0  0  0  0  0
   12.2569   -0.9383   23.7818 H   0  0  0  0  0  0  0  0  0  0  0  0
   11.6854    0.4782   24.3595 H   0  0  0  0  0  0  0  0  0  0  0  0
    8.9450   -1.6878   20.5927 H   0  0  0  0  0  0  0  0  0  0  0  0
    8.2744   -1.3956   18.4069 H   0  0  0  0  0  0  0  0  0  0  0  0
    9.0693    0.0309   18.4187 H   0  0  0  0  0  0  0  0  0  0  0  0
    6.5803   -0.2325   20.8301 H   0  0  0  0  0  0  0  0  0  0  0  0
    5.1425    1.9727   16.8986 H   0  0  0  0  0  0  0  0  0  0  0  0
    4.5126    0.4946   21.9784 H   0  0  0  0  0  0  0  0  0  0  0  0
    1.7948    2.7266   19.9554 H   0  0  0  0  0  0  0  0  0  0  0  0
  1  2  1  0  0  0  0
  2  3  2  0  0  0  0
  2  4  1  0  0  0  0
  3  5  1  0  0  0  0
  4  6  2  0  0  0  0
  5  7  1  0  0  0  0
  5  8  2  0  0  0  0
  6  9  1  0  0  0  0
  8 10  1  0  0  0  0
  9 11  1  0  0  0  0
  9 12  1  0  0  0  0
 10 13  1  0  0  0  0
 11 14  2  0  0  0  0
 11 15  1  0  0  0  0
 15 16  1  0  0  0  0
 16 17  1  0  0  0  0
 17 18  1  0  0  0  0
 17 19  2  0  0  0  0
 18 20  2  0  0  0  0
 19 21  1  0  0  0  0
 20 22  1  0  0  0  0
 21 23  2  0  0  0  0
 22 24  2  0  0  0  0
 23 25  1  0  0  0  0
 24 26  1  0  0  0  0
  6  8  1  0  0  0  0
 12 13  1  0  0  0  0
 21 22  1  0  0  0  0
 25 26  2  0  0  0  0
  3 27  1  0  0  0  0
  4 28  1  0  0  0  0
  9 29  1  0  0  0  0
 12 30  1  0  0  0  0
 12 31  1  0  0  0  0
 13 32  1  0  0  0  0
 13 33  1  0  0  0  0
 15 34  1  0  0  0  0
 16 35  1  0  0  0  0
 16 36  1  0  0  0  0
 19 37  1  0  0  0  0
 20 38  1  0  0  0  0
 23 39  1  0  0  0  0
 26 40  1  0  0  0  0
M  END
> <BIOSOLVEIT.HYDE_ESTIMATED_AFFINITY_LOWER_BOUNDARY [nM]>
1185326535.853173

> <BIOSOLVEIT.HYDE_ESTIMATED_AFFINITY_UPPER_BOUNDARY [nM]>
117769199542.130188

> <BIOSOLVEIT.HYDE_LIGAND_EFFICIENCY range: ++, +, 0, -, -->
--

> <BIOSOLVEIT.HYDE_LIGAND_LIPOPHILIC_EFFICIENCY range: ++, +, 0, -, -->
--

> <BIOSOLVEIT.INTER_CLASH range: red, yellow, green>
yellow

> <BIOSOLVEIT.INTRA_CLASH range: red, yellow, green>
red

> <BIOSOLVEIT.LOGP>
2.9998

> <BIOSOLVEIT.MOLECULAR WEIGHT>
372.786

> <BIOSOLVEIT.MOLECULE_CHECKSUM>
Ni4xMjE0Nzsw

> <BIOSOLVEIT.TORSION_QUALITY range: red, yellow, green, not rotatable>
yellow

> <BIOSOLVEIT.TPSA>
77

> <BIOSOLVEIT.SEESAR_FAVORITE>
favorite

> <smc_score>
1.0

> <QED_score>
0.764

> <distance>
0.542

> <SimilarityPheSA_1>
0.708

> <Smiles>
O=C(NCc1cc2cncnc2cn1)C1CCOc2c(F)cc(Cl)cc21

> <Similarity_SkelSpheres>
0.781

> <Cluster No>
366.0

> <QueryID>
MAT-POS-b3e365b9-1, VLA-UCB-1dbca3b4-15

> <SimilarityPheSA>
0.7076

> <Postera series>
3-aminopyridine-like

> <PDB_code>
Mpro-x11612, Mpro-x11498

> <Approach>
DGM_focussed_RL

> <ID>
20210618_660

> <SimilarityPheSA_2>
0.808

> <OPTIBRIUM.logD>
2.71874

> <OPTIBRIUM.BBB category>
-

> <OPTIBRIUM.logP>
2.71874

> <OPTIBRIUM.P-gp category>
yes

> <OPTIBRIUM.logS>
0.38904

> <OPTIBRIUM.HIA category>
+

> <OPTIBRIUM.PPB90 category>
high

> <OPTIBRIUM.2D6 affinity category>
high

> <OPTIBRIUM.hERG pIC50>
4.99813

> <OPTIBRIUM.2C9 pKi>
5.69928

> <OPTIBRIUM.BBB log([brain]:[blood])>
-0.654712

> <OPTIBRIUM.logS @ pH7.4>
0.38904

$$$$
