Compound 618_1_04
haSeeSAR  07122114383D 1   1.00000     0.00000     0
SeeSAR 11.0.2 hazemaj
 40 42  0  0  0  0            999 V2000
   10.3819   -1.7200   24.2941 F   0  0  0  0  0  0  0  0  0  0  0  0
   11.1080   -0.6782   23.8973 C   0  0  0  0  0  0  0  0  0  0  0  0
   12.1701   -0.8471   23.0142 C   0  0  0  0  0  0  0  0  0  0  0  0
   10.8091    0.5965   24.3655 C   0  0  0  0  0  0  0  0  0  0  0  0
   12.4527   -2.0676   22.5698 F   0  0  0  0  0  0  0  0  0  0  0  0
   12.9324    0.2379   22.5955 C   0  0  0  0  0  0  0  0  0  0  0  0
   11.5587    1.6961   23.9601 C   0  0  0  0  0  0  0  0  0  0  0  0
    9.6534    0.7995   25.3310 C   0  0  0  0  0  0  0  0  0  0  0  0
   12.6158    1.5035   23.0766 C   0  0  0  0  0  0  0  0  0  0  0  0
    8.3458    0.8300   24.5566 C   0  0  0  0  0  0  0  0  0  0  0  0
   13.3413    2.5442   22.6797 F   0  0  0  0  0  0  0  0  0  0  0  0
    8.0957    1.7747   23.8080 O   0  0  0  0  0  0  0  0  0  0  0  0
    7.4764   -0.1586   24.6872 N   0  0  0  0  0  0  0  0  0  0  0  0
    6.6368   -0.4982   23.6195 C   0  0  0  0  0  0  0  0  0  0  0  0
    6.1498   -1.7881   23.3165 C   0  0  0  0  0  0  0  0  0  0  0  0
    6.1362    0.3519   22.6801 C   0  0  0  0  0  0  0  0  0  0  0  0
    5.4032   -1.6629   22.2452 N   0  0  0  0  0  0  0  0  0  0  0  0
    5.3751   -0.4086   21.8470 N   0  0  0  0  0  0  0  0  0  0  0  0
    4.6361    0.1109   20.6865 C   0  0  0  0  0  0  0  0  0  0  0  0
    5.6174    0.6953   19.6800 C   0  0  1  0  0  0  0  0  0  0  0  0
    6.3362   -0.3571   18.8618 C   0  0  0  0  0  0  0  0  0  0  0  0
    4.8768    1.4010   18.5680 C   0  0  0  0  0  0  0  0  0  0  0  0
    6.7878    0.3265   17.7038 O   0  0  0  0  0  0  0  0  0  0  0  0
    5.9133    1.4151   17.4625 C   0  0  0  0  0  0  0  0  0  0  0  0
   13.6942    0.1104   21.9601 H   0  0  0  0  0  0  0  0  0  0  0  0
   11.3409    2.6115   24.2987 H   0  0  0  0  0  0  0  0  0  0  0  0
    9.7732    1.6652   25.8170 H   0  0  0  0  0  0  0  0  0  0  0  0
    9.6332    0.0473   25.9897 H   0  0  0  0  0  0  0  0  0  0  0  0
    7.4189   -0.6634   25.5486 H   0  0  0  0  0  0  0  0  0  0  0  0
    6.3371   -2.6316   23.8198 H   0  0  0  0  0  0  0  0  0  0  0  0
    6.2960    1.3370   22.6157 H   0  0  0  0  0  0  0  0  0  0  0  0
    4.0024    0.8239   20.9868 H   0  0  0  0  0  0  0  0  0  0  0  0
    4.1224   -0.6326   20.2583 H   0  0  0  0  0  0  0  0  0  0  0  0
    6.2674    1.3102   20.1264 H   0  0  0  0  0  0  0  0  0  0  0  0
    5.7109   -1.0966   18.6123 H   0  0  0  0  0  0  0  0  0  0  0  0
    7.1095   -0.7325   19.3727 H   0  0  0  0  0  0  0  0  0  0  0  0
    4.6175    2.3291   18.8355 H   0  0  0  0  0  0  0  0  0  0  0  0
    4.0603    0.8925   18.2948 H   0  0  0  0  0  0  0  0  0  0  0  0
    6.4225    2.2756   17.4796 H   0  0  0  0  0  0  0  0  0  0  0  0
    5.4688    1.3085   16.5732 H   0  0  0  0  0  0  0  0  0  0  0  0
  1  2  1  0  0  0  0
  2  3  2  0  0  0  0
  2  4  1  0  0  0  0
  3  5  1  0  0  0  0
  3  6  1  0  0  0  0
  4  7  2  0  0  0  0
  4  8  1  0  0  0  0
  6  9  2  0  0  0  0
  8 10  1  0  0  0  0
  9 11  1  0  0  0  0
 10 12  2  0  0  0  0
 10 13  1  0  0  0  0
 13 14  1  0  0  0  0
 14 15  1  0  0  0  0
 14 16  2  0  0  0  0
 15 17  2  0  0  0  0
 16 18  1  0  0  0  0
 18 19  1  0  0  0  0
 19 20  1  0  0  0  0
 20 21  1  0  0  0  0
 20 22  1  0  0  0  0
 21 23  1  0  0  0  0
 22 24  1  0  0  0  0
  7  9  1  0  0  0  0
 17 18  1  0  0  0  0
 23 24  1  0  0  0  0
  6 25  1  0  0  0  0
  7 26  1  0  0  0  0
  8 27  1  0  0  0  0
  8 28  1  0  0  0  0
 13 29  1  0  0  0  0
 15 30  1  0  0  0  0
 16 31  1  0  0  0  0
 19 32  1  0  0  0  0
 19 33  1  0  0  0  0
 20 34  1  0  0  0  0
 21 35  1  0  0  0  0
 21 36  1  0  0  0  0
 22 37  1  0  0  0  0
 22 38  1  0  0  0  0
 24 39  1  0  0  0  0
 24 40  1  0  0  0  0
M  END
> <BIOSOLVEIT.HYDE_ESTIMATED_AFFINITY_LOWER_BOUNDARY [nM]>
468.049537

> <BIOSOLVEIT.HYDE_ESTIMATED_AFFINITY_UPPER_BOUNDARY [nM]>
46503.488863

> <BIOSOLVEIT.HYDE_LIGAND_EFFICIENCY range: ++, +, 0, -, -->
0

> <BIOSOLVEIT.HYDE_LIGAND_LIPOPHILIC_EFFICIENCY range: ++, +, 0, -, -->
-

> <BIOSOLVEIT.INTER_CLASH range: red, yellow, green>
green

> <BIOSOLVEIT.INTRA_CLASH range: red, yellow, green>
red

> <BIOSOLVEIT.LOGP>
2.5181

> <BIOSOLVEIT.MOLECULAR WEIGHT>
339.315

> <BIOSOLVEIT.MOLECULE_CHECKSUM>
LTMwLjQzOzEuMjY3OTI=

> <BIOSOLVEIT.TORSION_QUALITY range: red, yellow, green, not rotatable>
green

> <BIOSOLVEIT.TPSA>
56.15

> <BIOSOLVEIT.SEESAR_FAVORITE>
favorite

> <smc_score>
0.563

> <QED_score>
0.852

> <distance>
0.722

> <SimilarityPheSA_1>
0.692

> <Smiles>
O=C(Cc1cc(F)cc(F)c1F)Nc1cnn(CC2CCOC2)c1

> <Similarity_SkelSpheres>
0.564

> <Cluster No>
338.0

> <QueryID>
JAN-GHE-5a013bed-2

> <SimilarityPheSA>
0.6921

> <Postera series>
3-aminopyridine-like

> <PDB_code>
Mpro-x10466

> <Approach>
DGM_focussed_RL

> <ID>
20210618_617

> <SimilarityPheSA_2>
0.742

> <OPTIBRIUM.logD>
2.48629

> <OPTIBRIUM.BBB category>
-

> <OPTIBRIUM.logP>
2.48629

> <OPTIBRIUM.P-gp category>
no

> <OPTIBRIUM.logS>
0.70691

> <OPTIBRIUM.HIA category>
+

> <OPTIBRIUM.PPB90 category>
high

> <OPTIBRIUM.2D6 affinity category>
high

> <OPTIBRIUM.hERG pIC50>
5.46748

> <OPTIBRIUM.2C9 pKi>
4.97683

> <OPTIBRIUM.BBB log([brain]:[blood])>
-0.037393

> <OPTIBRIUM.logS @ pH7.4>
0.70691

$$$$
Compound 1098_1_1
haSeeSAR  07122114383D 1   1.00000     0.00000     0
SeeSAR 11.0.2 hazemaj
 41 43  0  0  0  0            999 V2000
   13.4382    0.7870   23.2941 Cl  0  0  0  0  0  0  0  0  0  0  0  0
   11.7626    0.4709   23.8054 C   0  0  0  0  0  0  0  0  0  0  0  0
   11.1364   -0.7084   23.4195 C   0  0  0  0  0  0  0  0  0  0  0  0
   11.0963    1.4079   24.5868 C   0  0  0  0  0  0  0  0  0  0  0  0
   12.0088   -1.8950   22.4199 Cl  0  0  0  0  0  0  0  0  0  0  0  0
    9.8274   -0.9717   23.8089 C   0  0  0  0  0  0  0  0  0  0  0  0
    9.7879    1.1416   24.9751 C   0  0  0  0  0  0  0  0  0  0  0  0
    9.1580   -0.0357   24.5898 C   0  0  0  0  0  0  0  0  0  0  0  0
    9.1343    2.0251   25.7234 F   0  0  0  0  0  0  0  0  0  0  0  0
    7.7270   -0.3099   25.0241 C   0  0  0  0  0  0  0  0  0  0  0  0
    6.8258    0.6573   24.3813 N   0  3  1  0  0  0  0  0  0  0  0  0
    7.3449    1.1328   23.0864 C   0  0  0  0  0  0  0  0  0  0  0  0
    5.4542    0.1350   24.2450 C   0  0  0  0  0  0  0  0  0  0  0  0
    7.3606    0.0545   22.0117 C   0  0  0  0  0  0  0  0  0  0  0  0
    5.3386   -1.0115   23.2507 C   0  0  0  0  0  0  0  0  0  0  0  0
    6.1226   -0.7410   22.0354 N   0  0  0  0  0  0  0  0  0  0  0  0
    5.6530   -1.2484   20.8248 C   0  0  0  0  0  0  0  0  0  0  0  0
    5.2242   -2.4007   20.7654 O   0  0  0  0  0  0  0  0  0  0  0  0
    5.6696   -0.4186   19.6356 C   0  0  0  0  0  0  0  0  0  0  0  0
    6.3987   -0.7657   18.5030 C   0  0  0  0  0  0  0  0  0  0  0  0
    4.9389    0.7642   19.6151 C   0  0  0  0  0  0  0  0  0  0  0  0
    6.3989    0.0190   17.4153 N   0  0  0  0  0  0  0  0  0  0  0  0
    4.9480    1.5676   18.4799 C   0  0  0  0  0  0  0  0  0  0  0  0
    5.6983    1.1621   17.3813 C   0  0  0  0  0  0  0  0  0  0  0  0
   11.5485    2.2557   24.8638 H   0  0  0  0  0  0  0  0  0  0  0  0
    9.3754   -1.8197   23.5320 H   0  0  0  0  0  0  0  0  0  0  0  0
    7.6574   -0.2211   26.0177 H   0  0  0  0  0  0  0  0  0  0  0  0
    7.4684   -1.2372   24.7535 H   0  0  0  0  0  0  0  0  0  0  0  0
    8.2798    1.4612   23.2205 H   0  0  0  0  0  0  0  0  0  0  0  0
    6.7687    1.8868   22.7711 H   0  0  0  0  0  0  0  0  0  0  0  0
    4.8605    0.8797   23.9403 H   0  0  0  0  0  0  0  0  0  0  0  0
    5.1487   -0.1899   25.1401 H   0  0  0  0  0  0  0  0  0  0  0  0
    8.1404   -0.5514   22.1692 H   0  0  0  0  0  0  0  0  0  0  0  0
    7.4519    0.4888   21.1155 H   0  0  0  0  0  0  0  0  0  0  0  0
    4.3779   -1.1304   22.9998 H   0  0  0  0  0  0  0  0  0  0  0  0
    5.6778   -1.8496   23.6781 H   0  0  0  0  0  0  0  0  0  0  0  0
    6.9306   -1.6126   18.4998 H   0  0  0  0  0  0  0  0  0  0  0  0
    4.4069    1.0372   20.4167 H   0  0  0  0  0  0  0  0  0  0  0  0
    4.4255    2.4199   18.4541 H   0  0  0  0  0  0  0  0  0  0  0  0
    5.7156    1.7288   16.5575 H   0  0  0  0  0  0  0  0  0  0  0  0
    6.7754    1.4533   24.9846 H   0  0  0  0  0  0  0  0  0  0  0  0
  1  2  1  0  0  0  0
  2  3  2  0  0  0  0
  2  4  1  0  0  0  0
  3  5  1  0  0  0  0
  3  6  1  0  0  0  0
  4  7  2  0  0  0  0
  6  8  2  0  0  0  0
  7  9  1  0  0  0  0
  8 10  1  0  0  0  0
 10 11  1  0  0  0  0
 11 12  1  0  0  0  0
 11 13  1  0  0  0  0
 12 14  1  0  0  0  0
 13 15  1  0  0  0  0
 14 16  1  0  0  0  0
 16 17  1  0  0  0  0
 17 18  2  0  0  0  0
 17 19  1  0  0  0  0
 19 20  2  0  0  0  0
 19 21  1  0  0  0  0
 20 22  1  0  0  0  0
 21 23  2  0  0  0  0
 22 24  2  0  0  0  0
  7  8  1  0  0  0  0
 15 16  1  0  0  0  0
 23 24  1  0  0  0  0
  4 25  1  0  0  0  0
  6 26  1  0  0  0  0
 10 27  1  0  0  0  0
 10 28  1  0  0  0  0
 12 29  1  0  0  0  0
 12 30  1  0  0  0  0
 13 31  1  0  0  0  0
 13 32  1  0  0  0  0
 14 33  1  0  0  0  0
 14 34  1  0  0  0  0
 15 35  1  0  0  0  0
 15 36  1  0  0  0  0
 20 37  1  0  0  0  0
 21 38  1  0  0  0  0
 23 39  1  0  0  0  0
 24 40  1  0  0  0  0
 11 41  1  0  0  0  0
M  CHG  1  11   1
M  END
> <BIOSOLVEIT.HYDE_ESTIMATED_AFFINITY_LOWER_BOUNDARY [nM]>
876.361665

> <BIOSOLVEIT.HYDE_ESTIMATED_AFFINITY_UPPER_BOUNDARY [nM]>
87071.712861

> <BIOSOLVEIT.HYDE_LIGAND_EFFICIENCY range: ++, +, 0, -, -->
-

> <BIOSOLVEIT.HYDE_LIGAND_LIPOPHILIC_EFFICIENCY range: ++, +, 0, -, -->
-

> <BIOSOLVEIT.INTER_CLASH range: red, yellow, green>
green

> <BIOSOLVEIT.INTRA_CLASH range: red, yellow, green>
green

> <BIOSOLVEIT.LOGP>
2.0684

> <BIOSOLVEIT.MOLECULAR WEIGHT>
369.245

> <BIOSOLVEIT.MOLECULE_CHECKSUM>
LTI4Ljg3NTI7MS4yMDMxMw==

> <BIOSOLVEIT.TORSION_QUALITY range: red, yellow, green, not rotatable>
yellow

> <BIOSOLVEIT.TPSA>
37.64

> <BIOSOLVEIT.SEESAR_FAVORITE>
favorite

> <smc_score>
1.0

> <QED_score>
0.779

> <distance>
0.682

> <SimilarityPheSA_1>
0.692

> <Smiles>
O=C(c1cccnc1)N1CCN(Cc2cc(Cl)c(Cl)cc2F)CC1

> <Similarity_SkelSpheres>
0.676

> <Cluster No>
152.0

> <QueryID>
MAT-POS-f7918075-5

> <SimilarityPheSA>
0.6917

> <Postera series>
3-aminopyridine-like

> <PDB_code>
Mpro-x11499

> <Approach>
DGM_exploratory_RL

> <ID>
20210628_368

> <SimilarityPheSA_2>
0.777

> <OPTIBRIUM.logD>
1.63036

> <OPTIBRIUM.BBB category>
+

> <OPTIBRIUM.logP>
1.97494

> <OPTIBRIUM.P-gp category>
no

> <OPTIBRIUM.logS>
2.4618

> <OPTIBRIUM.HIA category>
+

> <OPTIBRIUM.PPB90 category>
high

> <OPTIBRIUM.2D6 affinity category>
medium

> <OPTIBRIUM.hERG pIC50>
5.47857

> <OPTIBRIUM.2C9 pKi>
5.16613

> <OPTIBRIUM.BBB log([brain]:[blood])>
-0.0915014

> <OPTIBRIUM.logS @ pH7.4>
1.79483

$$$$
Compound 618_1_07
haSeeSAR  07122114383D 1   1.00000     0.00000     0
SeeSAR 11.0.2 hazemaj
 40 42  0  0  0  0            999 V2000
   10.3955   -1.6073   24.4217 F   0  0  0  0  0  0  0  0  0  0  0  0
   11.0776   -0.5601   23.9654 C   0  0  0  0  0  0  0  0  0  0  0  0
   12.1177   -0.7480   23.0611 C   0  0  0  0  0  0  0  0  0  0  0  0
   10.7654    0.7299   24.3818 C   0  0  0  0  0  0  0  0  0  0  0  0
   12.4256   -1.9769   22.6553 F   0  0  0  0  0  0  0  0  0  0  0  0
   12.8439    0.3328   22.5721 C   0  0  0  0  0  0  0  0  0  0  0  0
   11.4779    1.8256   23.9060 C   0  0  0  0  0  0  0  0  0  0  0  0
    9.6301    0.9377   25.3712 C   0  0  0  0  0  0  0  0  0  0  0  0
   12.5137    1.6134   23.0024 C   0  0  0  0  0  0  0  0  0  0  0  0
    8.2990    0.7495   24.6618 C   0  0  0  0  0  0  0  0  0  0  0  0
   13.1992    2.6556   22.5428 F   0  0  0  0  0  0  0  0  0  0  0  0
    7.7720    1.6979   24.0803 O   0  0  0  0  0  0  0  0  0  0  0  0
    7.7069   -0.4336   24.6695 N   0  0  0  0  0  0  0  0  0  0  0  0
    6.8956   -0.8173   23.5949 C   0  0  0  0  0  0  0  0  0  0  0  0
    5.6461   -1.4684   23.6815 C   0  0  0  0  0  0  0  0  0  0  0  0
    7.1622   -0.6326   22.2718 C   0  0  0  0  0  0  0  0  0  0  0  0
    5.2292   -1.6413   22.4498 N   0  0  0  0  0  0  0  0  0  0  0  0
    6.1041   -1.1558   21.5946 N   0  0  0  0  0  0  0  0  0  0  0  0
    5.9731   -1.1629   20.1299 C   0  0  0  0  0  0  0  0  0  0  0  0
    6.1493    0.2524   19.5978 C   0  0  1  0  0  0  0  0  0  0  0  0
    7.4392    0.4254   18.8193 C   0  0  0  0  0  0  0  0  0  0  0  0
    5.0689    0.5984   18.5954 C   0  0  0  0  0  0  0  0  0  0  0  0
    7.0755    0.7732   17.4892 O   0  0  0  0  0  0  0  0  0  0  0  0
    5.8387    1.4415   17.5999 C   0  0  0  0  0  0  0  0  0  0  0  0
   13.5906    0.1914   21.9222 H   0  0  0  0  0  0  0  0  0  0  0  0
   11.2491    2.7508   24.2086 H   0  0  0  0  0  0  0  0  0  0  0  0
    9.6801    1.8634   25.7462 H   0  0  0  0  0  0  0  0  0  0  0  0
    9.7091    0.2726   26.1138 H   0  0  0  0  0  0  0  0  0  0  0  0
    7.8387   -1.0536   25.4429 H   0  0  0  0  0  0  0  0  0  0  0  0
    5.1718   -1.7437   24.5177 H   0  0  0  0  0  0  0  0  0  0  0  0
    7.9726   -0.1995   21.8773 H   0  0  0  0  0  0  0  0  0  0  0  0
    5.0671   -1.5033   19.8779 H   0  0  0  0  0  0  0  0  0  0  0  0
    6.6740   -1.7571   19.7355 H   0  0  0  0  0  0  0  0  0  0  0  0
    6.1248    0.9028   20.3569 H   0  0  0  0  0  0  0  0  0  0  0  0
    7.9593   -0.4287   18.8213 H   0  0  0  0  0  0  0  0  0  0  0  0
    7.9915    1.1530   19.2262 H   0  0  0  0  0  0  0  0  0  0  0  0
    4.3293    1.1198   19.0210 H   0  0  0  0  0  0  0  0  0  0  0  0
    4.6932   -0.2226   18.1653 H   0  0  0  0  0  0  0  0  0  0  0  0
    5.9650    2.3726   17.9423 H   0  0  0  0  0  0  0  0  0  0  0  0
    5.3685    1.4715   16.7179 H   0  0  0  0  0  0  0  0  0  0  0  0
  1  2  1  0  0  0  0
  2  3  2  0  0  0  0
  2  4  1  0  0  0  0
  3  5  1  0  0  0  0
  3  6  1  0  0  0  0
  4  7  2  0  0  0  0
  4  8  1  0  0  0  0
  6  9  2  0  0  0  0
  8 10  1  0  0  0  0
  9 11  1  0  0  0  0
 10 12  2  0  0  0  0
 10 13  1  0  0  0  0
 13 14  1  0  0  0  0
 14 15  1  0  0  0  0
 14 16  2  0  0  0  0
 15 17  2  0  0  0  0
 16 18  1  0  0  0  0
 18 19  1  0  0  0  0
 19 20  1  0  0  0  0
 20 21  1  0  0  0  0
 20 22  1  0  0  0  0
 21 23  1  0  0  0  0
 22 24  1  0  0  0  0
  7  9  1  0  0  0  0
 17 18  1  0  0  0  0
 23 24  1  0  0  0  0
  6 25  1  0  0  0  0
  7 26  1  0  0  0  0
  8 27  1  0  0  0  0
  8 28  1  0  0  0  0
 13 29  1  0  0  0  0
 15 30  1  0  0  0  0
 16 31  1  0  0  0  0
 19 32  1  0  0  0  0
 19 33  1  0  0  0  0
 20 34  1  0  0  0  0
 21 35  1  0  0  0  0
 21 36  1  0  0  0  0
 22 37  1  0  0  0  0
 22 38  1  0  0  0  0
 24 39  1  0  0  0  0
 24 40  1  0  0  0  0
M  END
> <BIOSOLVEIT.HYDE_ESTIMATED_AFFINITY_LOWER_BOUNDARY [nM]>
1205.483777

> <BIOSOLVEIT.HYDE_ESTIMATED_AFFINITY_UPPER_BOUNDARY [nM]>
119771.940605

> <BIOSOLVEIT.HYDE_LIGAND_EFFICIENCY range: ++, +, 0, -, -->
-

> <BIOSOLVEIT.HYDE_LIGAND_LIPOPHILIC_EFFICIENCY range: ++, +, 0, -, -->
-

> <BIOSOLVEIT.INTER_CLASH range: red, yellow, green>
green

> <BIOSOLVEIT.INTRA_CLASH range: red, yellow, green>
green

> <BIOSOLVEIT.LOGP>
2.5181

> <BIOSOLVEIT.MOLECULAR WEIGHT>
339.315

> <BIOSOLVEIT.MOLECULE_CHECKSUM>
LTI4LjA4NDg7MS4xNzAy

> <BIOSOLVEIT.TORSION_QUALITY range: red, yellow, green, not rotatable>
red

> <BIOSOLVEIT.TPSA>
56.15

> <BIOSOLVEIT.SEESAR_FAVORITE>
favorite

> <smc_score>
0.563

> <QED_score>
0.852

> <distance>
0.722

> <SimilarityPheSA_1>
0.692

> <Smiles>
O=C(Cc1cc(F)cc(F)c1F)Nc1cnn(CC2CCOC2)c1

> <Similarity_SkelSpheres>
0.564

> <Cluster No>
338.0

> <QueryID>
JAN-GHE-5a013bed-2

> <SimilarityPheSA>
0.6921

> <Postera series>
3-aminopyridine-like

> <PDB_code>
Mpro-x10466

> <Approach>
DGM_focussed_RL

> <ID>
20210618_617

> <SimilarityPheSA_2>
0.742

> <OPTIBRIUM.logD>
2.48629

> <OPTIBRIUM.BBB category>
-

> <OPTIBRIUM.logP>
2.48629

> <OPTIBRIUM.P-gp category>
no

> <OPTIBRIUM.logS>
0.70691

> <OPTIBRIUM.HIA category>
+

> <OPTIBRIUM.PPB90 category>
high

> <OPTIBRIUM.2D6 affinity category>
high

> <OPTIBRIUM.hERG pIC50>
5.46748

> <OPTIBRIUM.2C9 pKi>
4.97683

> <OPTIBRIUM.BBB log([brain]:[blood])>
-0.037393

> <OPTIBRIUM.logS @ pH7.4>
0.70691

$$$$
Compound 618_1_02
haSeeSAR  07122114383D 1   1.00000     0.00000     0
SeeSAR 11.0.2 hazemaj
 40 42  0  0  0  0            999 V2000
   11.0002   -2.2408   23.8198 F   0  0  0  0  0  0  0  0  0  0  0  0
   11.4804   -1.0118   23.6487 C   0  0  0  0  0  0  0  0  0  0  0  0
   12.3875   -0.7386   22.6296 C   0  0  0  0  0  0  0  0  0  0  0  0
   11.0769    0.0162   24.4937 C   0  0  0  0  0  0  0  0  0  0  0  0
   12.7710   -1.7247   21.8247 F   0  0  0  0  0  0  0  0  0  0  0  0
   12.8925    0.5438   22.4454 C   0  0  0  0  0  0  0  0  0  0  0  0
   11.5698    1.3066   24.3279 C   0  0  0  0  0  0  0  0  0  0  0  0
   10.0877   -0.2641   25.6125 C   0  0  0  0  0  0  0  0  0  0  0  0
   12.4753    1.5565   23.3022 C   0  0  0  0  0  0  0  0  0  0  0  0
    8.6721   -0.2159   25.0612 C   0  0  0  0  0  0  0  0  0  0  0  0
   12.9552    2.7843   23.1309 F   0  0  0  0  0  0  0  0  0  0  0  0
    8.1314    0.8692   24.8476 O   0  0  0  0  0  0  0  0  0  0  0  0
    8.0209   -1.3400   24.8111 N   0  0  0  0  0  0  0  0  0  0  0  0
    7.0653   -1.3828   23.7887 C   0  0  0  0  0  0  0  0  0  0  0  0
    5.7033   -1.7254   23.9312 C   0  0  0  0  0  0  0  0  0  0  0  0
    7.2738   -1.1016   22.4722 C   0  0  0  0  0  0  0  0  0  0  0  0
    5.1695   -1.6386   22.7361 N   0  0  0  0  0  0  0  0  0  0  0  0
    6.0737   -1.2703   21.8532 N   0  0  0  0  0  0  0  0  0  0  0  0
    5.8406   -1.0621   20.4162 C   0  0  0  0  0  0  0  0  0  0  0  0
    6.6639    0.1245   19.9352 C   0  0  1  0  0  0  0  0  0  0  0  0
    7.5835   -0.2274   18.7755 C   0  0  0  0  0  0  0  0  0  0  0  0
    5.7932    1.1852   19.2989 C   0  0  0  0  0  0  0  0  0  0  0  0
    6.8614    0.0557   17.5782 O   0  0  0  0  0  0  0  0  0  0  0  0
    5.6071    0.6192   17.9071 C   0  0  0  0  0  0  0  0  0  0  0  0
   13.5436    0.7342   21.7107 H   0  0  0  0  0  0  0  0  0  0  0  0
   11.2772    2.0436   24.9373 H   0  0  0  0  0  0  0  0  0  0  0  0
   10.1902    0.4260   26.3288 H   0  0  0  0  0  0  0  0  0  0  0  0
   10.2656   -1.1708   25.9953 H   0  0  0  0  0  0  0  0  0  0  0  0
    8.2111   -2.1591   25.3523 H   0  0  0  0  0  0  0  0  0  0  0  0
    5.2369   -1.9835   24.7773 H   0  0  0  0  0  0  0  0  0  0  0  0
    8.1358   -0.8265   22.0461 H   0  0  0  0  0  0  0  0  0  0  0  0
    4.8700   -0.8800   20.2588 H   0  0  0  0  0  0  0  0  0  0  0  0
    6.1118   -1.8822   19.9123 H   0  0  0  0  0  0  0  0  0  0  0  0
    7.1900    0.5131   20.6917 H   0  0  0  0  0  0  0  0  0  0  0  0
    7.8264   -1.1968   18.8103 H   0  0  0  0  0  0  0  0  0  0  0  0
    8.4153    0.3263   18.8152 H   0  0  0  0  0  0  0  0  0  0  0  0
    6.2549    2.0719   19.2749 H   0  0  0  0  0  0  0  0  0  0  0  0
    4.9196    1.2769   19.7768 H   0  0  0  0  0  0  0  0  0  0  0  0
    5.3656    1.3435   17.2612 H   0  0  0  0  0  0  0  0  0  0  0  0
    4.8938   -0.0817   17.9039 H   0  0  0  0  0  0  0  0  0  0  0  0
  1  2  1  0  0  0  0
  2  3  2  0  0  0  0
  2  4  1  0  0  0  0
  3  5  1  0  0  0  0
  3  6  1  0  0  0  0
  4  7  2  0  0  0  0
  4  8  1  0  0  0  0
  6  9  2  0  0  0  0
  8 10  1  0  0  0  0
  9 11  1  0  0  0  0
 10 12  2  0  0  0  0
 10 13  1  0  0  0  0
 13 14  1  0  0  0  0
 14 15  1  0  0  0  0
 14 16  2  0  0  0  0
 15 17  2  0  0  0  0
 16 18  1  0  0  0  0
 18 19  1  0  0  0  0
 19 20  1  0  0  0  0
 20 21  1  0  0  0  0
 20 22  1  0  0  0  0
 21 23  1  0  0  0  0
 22 24  1  0  0  0  0
  7  9  1  0  0  0  0
 17 18  1  0  0  0  0
 23 24  1  0  0  0  0
  6 25  1  0  0  0  0
  7 26  1  0  0  0  0
  8 27  1  0  0  0  0
  8 28  1  0  0  0  0
 13 29  1  0  0  0  0
 15 30  1  0  0  0  0
 16 31  1  0  0  0  0
 19 32  1  0  0  0  0
 19 33  1  0  0  0  0
 20 34  1  0  0  0  0
 21 35  1  0  0  0  0
 21 36  1  0  0  0  0
 22 37  1  0  0  0  0
 22 38  1  0  0  0  0
 24 39  1  0  0  0  0
 24 40  1  0  0  0  0
M  END
> <BIOSOLVEIT.HYDE_ESTIMATED_AFFINITY_LOWER_BOUNDARY [nM]>
1261.330721

> <BIOSOLVEIT.HYDE_ESTIMATED_AFFINITY_UPPER_BOUNDARY [nM]>
125320.664676

> <BIOSOLVEIT.HYDE_LIGAND_EFFICIENCY range: ++, +, 0, -, -->
-

> <BIOSOLVEIT.HYDE_LIGAND_LIPOPHILIC_EFFICIENCY range: ++, +, 0, -, -->
-

> <BIOSOLVEIT.INTER_CLASH range: red, yellow, green>
green

> <BIOSOLVEIT.INTRA_CLASH range: red, yellow, green>
green

> <BIOSOLVEIT.LOGP>
2.5181

> <BIOSOLVEIT.MOLECULAR WEIGHT>
339.315

> <BIOSOLVEIT.MOLECULE_CHECKSUM>
LTI3Ljk3MjU7MS4xNjU1Mg==

> <BIOSOLVEIT.TORSION_QUALITY range: red, yellow, green, not rotatable>
red

> <BIOSOLVEIT.TPSA>
56.15

> <BIOSOLVEIT.SEESAR_FAVORITE>
favorite

> <smc_score>
0.563

> <QED_score>
0.852

> <distance>
0.722

> <SimilarityPheSA_1>
0.692

> <Smiles>
O=C(Cc1cc(F)cc(F)c1F)Nc1cnn(CC2CCOC2)c1

> <Similarity_SkelSpheres>
0.564

> <Cluster No>
338.0

> <QueryID>
JAN-GHE-5a013bed-2

> <SimilarityPheSA>
0.6921

> <Postera series>
3-aminopyridine-like

> <PDB_code>
Mpro-x10466

> <Approach>
DGM_focussed_RL

> <ID>
20210618_617

> <SimilarityPheSA_2>
0.742

> <OPTIBRIUM.logD>
2.48629

> <OPTIBRIUM.BBB category>
-

> <OPTIBRIUM.logP>
2.48629

> <OPTIBRIUM.P-gp category>
no

> <OPTIBRIUM.logS>
0.70691

> <OPTIBRIUM.HIA category>
+

> <OPTIBRIUM.PPB90 category>
high

> <OPTIBRIUM.2D6 affinity category>
high

> <OPTIBRIUM.hERG pIC50>
5.46748

> <OPTIBRIUM.2C9 pKi>
4.97683

> <OPTIBRIUM.BBB log([brain]:[blood])>
-0.037393

> <OPTIBRIUM.logS @ pH7.4>
0.70691

$$$$
Compound 1618_1_04
haSeeSAR  07122114383D 1   1.00000     0.00000     0
SeeSAR 11.0.2 hazemaj
 42 44  0  0  0  0            999 V2000
    2.7069    2.1888   19.6089 Cl  0  0  0  0  0  0  0  0  0  0  0  0
    3.6691    1.3597   20.8559 C   0  0  0  0  0  0  0  0  0  0  0  0
    4.8864    0.7844   20.5071 C   0  0  0  0  0  0  0  0  0  0  0  0
    3.1946    1.2961   22.1616 C   0  0  0  0  0  0  0  0  0  0  0  0
    5.3598    0.8507   19.1913 N   0  0  0  0  0  0  0  0  0  0  0  0
    5.6360    0.1367   21.4846 C   0  0  0  0  0  0  0  0  0  0  0  0
    3.9597    0.6438   23.1226 C   0  0  0  0  0  0  0  0  0  0  0  0
    5.3045    1.9069   18.4050 N   0  0  0  0  0  0  0  0  0  0  0  0
    5.9473   -0.1757   18.5112 C   0  0  0  0  0  0  0  0  0  0  0  0
    5.1803    0.0611   22.7966 C   0  0  0  0  0  0  0  0  0  0  0  0
    6.9716   -0.5060   21.1469 C   0  0  0  0  0  0  0  0  0  0  0  0
    3.3610    0.5575   24.7966 Cl  0  0  0  0  0  0  0  0  0  0  0  0
    5.8456    1.5915   17.2446 C   0  0  0  0  0  0  0  0  0  0  0  0
    6.2407    0.2852   17.3139 N   0  0  0  0  0  0  0  0  0  0  0  0
    7.5021   -1.1878   22.3362 N   0  0  0  0  0  0  0  0  0  0  0  0
    7.2075   -2.4587   22.5567 C   0  0  0  0  0  0  0  0  0  0  0  0
    6.4893   -3.0701   21.7659 O   0  0  0  0  0  0  0  0  0  0  0  0
    7.7561   -3.1636   23.7866 C   0  0  0  0  0  0  0  0  0  0  0  0
    9.1257   -3.4769   23.5812 O   0  0  0  0  0  0  0  0  0  0  0  0
    9.9064   -2.8813   24.6070 C   0  0  0  0  0  0  0  0  0  0  0  0
   10.7681   -1.7798   24.0129 C   0  0  0  0  0  0  0  0  0  0  0  0
   10.6765   -0.4877   24.5193 C   0  0  0  0  0  0  0  0  0  0  0  0
   11.6345   -2.0862   22.9688 C   0  0  0  0  0  0  0  0  0  0  0  0
   11.4725    0.5072   23.9620 C   0  0  0  0  0  0  0  0  0  0  0  0
   12.4198   -1.0732   22.4291 C   0  0  0  0  0  0  0  0  0  0  0  0
   11.3936    1.7461   24.4380 F   0  0  0  0  0  0  0  0  0  0  0  0
   12.3475    0.2271   22.9176 C   0  0  0  0  0  0  0  0  0  0  0  0
   13.2543   -1.3466   21.4307 F   0  0  0  0  0  0  0  0  0  0  0  0
    2.3186    1.7121   22.4054 H   0  0  0  0  0  0  0  0  0  0  0  0
    6.1211   -1.0983   18.8553 H   0  0  0  0  0  0  0  0  0  0  0  0
    5.7222   -0.4055   23.4956 H   0  0  0  0  0  0  0  0  0  0  0  0
    7.6159    0.1995   20.8519 H   0  0  0  0  0  0  0  0  0  0  0  0
    6.8449   -1.1706   20.4104 H   0  0  0  0  0  0  0  0  0  0  0  0
    5.9482    2.1986   16.4565 H   0  0  0  0  0  0  0  0  0  0  0  0
    8.0856   -0.6911   22.9787 H   0  0  0  0  0  0  0  0  0  0  0  0
    7.2415   -4.0064   23.9450 H   0  0  0  0  0  0  0  0  0  0  0  0
    7.6668   -2.5642   24.5820 H   0  0  0  0  0  0  0  0  0  0  0  0
   10.4934   -3.5750   25.0246 H   0  0  0  0  0  0  0  0  0  0  0  0
    9.3022   -2.4931   25.3030 H   0  0  0  0  0  0  0  0  0  0  0  0
   10.0500   -0.2779   25.2700 H   0  0  0  0  0  0  0  0  0  0  0  0
   11.6917   -3.0188   22.6124 H   0  0  0  0  0  0  0  0  0  0  0  0
   12.9158    0.9497   22.5239 H   0  0  0  0  0  0  0  0  0  0  0  0
  1  2  1  0  0  0  0
  2  3  2  0  0  0  0
  2  4  1  0  0  0  0
  3  5  1  0  0  0  0
  3  6  1  0  0  0  0
  4  7  2  0  0  0  0
  5  8  1  0  0  0  0
  5  9  1  0  0  0  0
  6 10  2  0  0  0  0
  6 11  1  0  0  0  0
  7 12  1  0  0  0  0
  8 13  2  0  0  0  0
  9 14  2  0  0  0  0
 11 15  1  0  0  0  0
 15 16  1  0  0  0  0
 16 17  2  0  0  0  0
 16 18  1  0  0  0  0
 18 19  1  0  0  0  0
 19 20  1  0  0  0  0
 20 21  1  0  0  0  0
 21 22  2  0  0  0  0
 21 23  1  0  0  0  0
 22 24  1  0  0  0  0
 23 25  2  0  0  0  0
 24 26  1  0  0  0  0
 24 27  2  0  0  0  0
 25 28  1  0  0  0  0
  7 10  1  0  0  0  0
 13 14  1  0  0  0  0
 25 27  1  0  0  0  0
  4 29  1  0  0  0  0
  9 30  1  0  0  0  0
 10 31  1  0  0  0  0
 11 32  1  0  0  0  0
 11 33  1  0  0  0  0
 13 34  1  0  0  0  0
 15 35  1  0  0  0  0
 18 36  1  0  0  0  0
 18 37  1  0  0  0  0
 20 38  1  0  0  0  0
 20 39  1  0  0  0  0
 22 40  1  0  0  0  0
 23 41  1  0  0  0  0
 27 42  1  0  0  0  0
M  END
> <BIOSOLVEIT.HYDE_ESTIMATED_AFFINITY_LOWER_BOUNDARY [nM]>
1638.332877

> <BIOSOLVEIT.HYDE_ESTIMATED_AFFINITY_UPPER_BOUNDARY [nM]>
162778.057900

> <BIOSOLVEIT.HYDE_LIGAND_EFFICIENCY range: ++, +, 0, -, -->
-

> <BIOSOLVEIT.HYDE_LIGAND_LIPOPHILIC_EFFICIENCY range: ++, +, 0, -, -->
--

> <BIOSOLVEIT.INTER_CLASH range: red, yellow, green>
green

> <BIOSOLVEIT.INTRA_CLASH range: red, yellow, green>
red

> <BIOSOLVEIT.LOGP>
3.6853

> <BIOSOLVEIT.MOLECULAR WEIGHT>
427.237

> <BIOSOLVEIT.MOLECULE_CHECKSUM>
LTI3LjMyNDI7MC45NzU4NjY=

> <BIOSOLVEIT.TORSION_QUALITY range: red, yellow, green, not rotatable>
red

> <BIOSOLVEIT.TPSA>
69.04

> <BIOSOLVEIT.SEESAR_FAVORITE>
favorite

> <smc_score>
0.688

> <QED_score>
0.625

> <distance>
0.681

> <SimilarityPheSA_1>
0.654

> <Smiles>
O=C(COCc1cc(F)cc(F)c1)NCc1cc(Cl)cc(Cl)c1-n1cncn1

> <Similarity_SkelSpheres>
0.621

> <Cluster No>
414.0

> <QueryID>
ADA-UCB-6c2cb422-1

> <SimilarityPheSA>
0.6536

> <Postera series>
3-aminopyridine-like

> <PDB_code>
Mpro-x10959

> <Approach>
DGM_exploratory_RL

> <ID>
20210628_888

> <SimilarityPheSA_2>
0.614

> <OPTIBRIUM.logD>
3.00654

> <OPTIBRIUM.BBB category>
-

> <OPTIBRIUM.logP>
3.00654

> <OPTIBRIUM.P-gp category>
yes

> <OPTIBRIUM.logS>
0.509297

> <OPTIBRIUM.HIA category>
+

> <OPTIBRIUM.PPB90 category>
high

> <OPTIBRIUM.2D6 affinity category>
medium

> <OPTIBRIUM.hERG pIC50>
4.80868

> <OPTIBRIUM.2C9 pKi>
5.48726

> <OPTIBRIUM.BBB log([brain]:[blood])>
-0.400833

> <OPTIBRIUM.logS @ pH7.4>
0.509297

$$$$
Compound 869_1_1
haSeeSAR  07122114383D 1   1.00000     0.00000     0
SeeSAR 11.0.2 hazemaj
 42 44  0  0  0  0            999 V2000
   13.5674   -1.2843   21.8670 Cl  0  0  0  0  0  0  0  0  0  0  0  0
   12.3606   -0.3066   22.7369 C   0  0  0  0  0  0  0  0  0  0  0  0
   11.1902   -0.9067   23.1896 C   0  0  0  0  0  0  0  0  0  0  0  0
   12.6020    1.0459   22.9537 C   0  0  0  0  0  0  0  0  0  0  0  0
   10.9795   -2.2018   22.9714 F   0  0  0  0  0  0  0  0  0  0  0  0
   10.2533   -0.1341   23.8678 C   0  0  0  0  0  0  0  0  0  0  0  0
   11.6500    1.7972   23.6348 C   0  0  0  0  0  0  0  0  0  0  0  0
   10.4721    1.2201   24.0969 C   0  0  0  0  0  0  0  0  0  0  0  0
    8.9707   -0.7801   24.3658 C   0  0  0  0  0  0  0  0  0  0  0  0
   11.9476    3.5290   23.9187 Cl  0  0  0  0  0  0  0  0  0  0  0  0
    7.8384    0.1246   24.1192 N   0  3  2  0  0  0  0  0  0  0  0  0
    6.5392   -0.5491   24.2944 C   0  0  0  0  0  0  0  0  0  0  0  0
    7.9238    0.7761   22.7992 C   0  0  0  0  0  0  0  0  0  0  0  0
    6.2566   -1.5983   23.2268 C   0  0  0  0  0  0  0  0  0  0  0  0
    7.7602   -0.1940   21.6386 C   0  0  0  0  0  0  0  0  0  0  0  0
    6.6522   -1.1299   21.8884 N   0  0  0  0  0  0  0  0  0  0  0  0
    5.9119   -1.5771   20.7921 C   0  0  0  0  0  0  0  0  0  0  0  0
    5.1803   -2.5608   20.9035 O   0  0  0  0  0  0  0  0  0  0  0  0
    6.0049   -0.8824   19.5220 C   0  0  0  0  0  0  0  0  0  0  0  0
    6.5898   -1.3859   18.3388 C   0  0  0  0  0  0  0  0  0  0  0  0
    5.5466    0.3709   19.2539 C   0  0  0  0  0  0  0  0  0  0  0  0
    6.4622   -0.4427   17.4378 N   0  0  0  0  0  0  0  0  0  0  0  0
    5.8517    0.6048   17.9483 N   0  0  0  0  0  0  0  0  0  0  0  0
    5.5403    1.8436   17.2202 C   0  0  0  0  0  0  0  0  0  0  0  0
   13.4455    1.4709   22.6255 H   0  0  0  0  0  0  0  0  0  0  0  0
    9.7942    1.7692   24.5855 H   0  0  0  0  0  0  0  0  0  0  0  0
    9.0469   -0.9592   25.3467 H   0  0  0  0  0  0  0  0  0  0  0  0
    8.8210   -1.6415   23.8804 H   0  0  0  0  0  0  0  0  0  0  0  0
    5.8164    0.1412   24.2605 H   0  0  0  0  0  0  0  0  0  0  0  0
    6.5314   -0.9961   25.1889 H   0  0  0  0  0  0  0  0  0  0  0  0
    8.8176    1.2178   22.7203 H   0  0  0  0  0  0  0  0  0  0  0  0
    7.2039    1.4676   22.7392 H   0  0  0  0  0  0  0  0  0  0  0  0
    5.2776   -1.8020   23.2232 H   0  0  0  0  0  0  0  0  0  0  0  0
    6.7691   -2.4290   23.4445 H   0  0  0  0  0  0  0  0  0  0  0  0
    8.6073   -0.7127   21.5237 H   0  0  0  0  0  0  0  0  0  0  0  0
    7.5700    0.3231   20.8041 H   0  0  0  0  0  0  0  0  0  0  0  0
    7.0157   -2.2821   18.2137 H   0  0  0  0  0  0  0  0  0  0  0  0
    5.0819    0.9914   19.8855 H   0  0  0  0  0  0  0  0  0  0  0  0
    5.8669    1.7674   16.2781 H   0  0  0  0  0  0  0  0  0  0  0  0
    4.5512    1.9901   17.2194 H   0  0  0  0  0  0  0  0  0  0  0  0
    5.9914    2.6156   17.6679 H   0  0  0  0  0  0  0  0  0  0  0  0
    7.8876    0.8491   24.8068 H   0  0  0  0  0  0  0  0  0  0  0  0
  1  2  1  0  0  0  0
  2  3  2  0  0  0  0
  2  4  1  0  0  0  0
  3  5  1  0  0  0  0
  3  6  1  0  0  0  0
  4  7  2  0  0  0  0
  6  8  2  0  0  0  0
  6  9  1  0  0  0  0
  7 10  1  0  0  0  0
  9 11  1  0  0  0  0
 11 12  1  0  0  0  0
 11 13  1  0  0  0  0
 12 14  1  0  0  0  0
 13 15  1  0  0  0  0
 14 16  1  0  0  0  0
 16 17  1  0  0  0  0
 17 18  2  0  0  0  0
 17 19  1  0  0  0  0
 19 20  1  0  0  0  0
 19 21  2  0  0  0  0
 20 22  2  0  0  0  0
 21 23  1  0  0  0  0
 23 24  1  0  0  0  0
  7  8  1  0  0  0  0
 15 16  1  0  0  0  0
 22 23  1  0  0  0  0
  4 25  1  0  0  0  0
  8 26  1  0  0  0  0
  9 27  1  0  0  0  0
  9 28  1  0  0  0  0
 12 29  1  0  0  0  0
 12 30  1  0  0  0  0
 13 31  1  0  0  0  0
 13 32  1  0  0  0  0
 14 33  1  0  0  0  0
 14 34  1  0  0  0  0
 15 35  1  0  0  0  0
 15 36  1  0  0  0  0
 20 37  1  0  0  0  0
 21 38  1  0  0  0  0
 24 39  1  0  0  0  0
 24 40  1  0  0  0  0
 24 41  1  0  0  0  0
 11 42  1  0  0  0  0
M  CHG  1  11   1
M  END
> <BIOSOLVEIT.HYDE_ESTIMATED_AFFINITY_LOWER_BOUNDARY [nM]>
1888.934183

> <BIOSOLVEIT.HYDE_ESTIMATED_AFFINITY_UPPER_BOUNDARY [nM]>
187676.779319

> <BIOSOLVEIT.HYDE_LIGAND_EFFICIENCY range: ++, +, 0, -, -->
-

> <BIOSOLVEIT.HYDE_LIGAND_LIPOPHILIC_EFFICIENCY range: ++, +, 0, -, -->
-

> <BIOSOLVEIT.INTER_CLASH range: red, yellow, green>
yellow

> <BIOSOLVEIT.INTRA_CLASH range: red, yellow, green>
yellow

> <BIOSOLVEIT.LOGP>
1.4069

> <BIOSOLVEIT.MOLECULAR WEIGHT>
372.249

> <BIOSOLVEIT.MOLECULE_CHECKSUM>
LTI2Ljk3MTQ7MS4xMjM4MQ==

> <BIOSOLVEIT.TORSION_QUALITY range: red, yellow, green, not rotatable>
green

> <BIOSOLVEIT.TPSA>
42.57

> <BIOSOLVEIT.SEESAR_FAVORITE>
favorite

> <smc_score>
0.813

> <QED_score>
0.78

> <distance>
0.712

> <SimilarityPheSA_1>
0.675

> <Smiles>
Cn1cc(C(=O)N2CCN(Cc3cc(Cl)cc(Cl)c3F)CC2)cn1

> <Similarity_SkelSpheres>
0.652

> <Cluster No>
57.0

> <QueryID>
JAN-GHE-5a013bed-2

> <SimilarityPheSA>
0.6747

> <Postera series>
3-aminopyridine-like

> <PDB_code>
Mpro-x10466

> <Approach>
DGM_exploratory_RL

> <ID>
20210628_139

> <SimilarityPheSA_2>
0.798

> <OPTIBRIUM.logD>
1.24103

> <OPTIBRIUM.BBB category>
-

> <OPTIBRIUM.logP>
2.05537

> <OPTIBRIUM.P-gp category>
yes

> <OPTIBRIUM.logS>
2.84049

> <OPTIBRIUM.HIA category>
+

> <OPTIBRIUM.PPB90 category>
high

> <OPTIBRIUM.2D6 affinity category>
medium

> <OPTIBRIUM.hERG pIC50>
5.58609

> <OPTIBRIUM.2C9 pKi>
5.01235

> <OPTIBRIUM.BBB log([brain]:[blood])>
-0.148076

> <OPTIBRIUM.logS @ pH7.4>
2.42231

$$$$
Compound 515_1_2
haSeeSAR  07122114383D 1   1.00000     0.00000     0
SeeSAR 11.0.2 hazemaj
 41 43  0  0  0  0            999 V2000
   12.5067    3.0877   23.0208 Cl  0  0  0  0  0  0  0  0  0  0  0  0
   11.4766    1.6585   23.2727 C   0  0  0  0  0  0  0  0  0  0  0  0
   12.0425    0.3880   23.2495 C   0  0  0  0  0  0  0  0  0  0  0  0
   10.1127    1.8177   23.4919 C   0  0  0  0  0  0  0  0  0  0  0  0
   13.7902    0.1974   22.9688 Cl  0  0  0  0  0  0  0  0  0  0  0  0
   11.2553   -0.7423   23.4432 C   0  0  0  0  0  0  0  0  0  0  0  0
    9.3292    0.6851   23.6856 C   0  0  0  0  0  0  0  0  0  0  0  0
    9.8901   -0.5875   23.6625 C   0  0  0  0  0  0  0  0  0  0  0  0
    7.8375    0.8543   23.9251 C   0  0  0  0  0  0  0  0  0  0  0  0
    7.2262    1.5143   22.7622 N   0  3  2  0  0  0  0  0  0  0  0  0
    5.7807    1.2427   22.6643 C   0  0  0  0  0  0  0  0  0  0  0  0
    7.9155    1.1754   21.5038 C   0  0  0  0  0  0  0  0  0  0  0  0
    5.4626   -0.2075   22.3232 C   0  0  0  0  0  0  0  0  0  0  0  0
    7.7582   -0.2849   21.1068 C   0  0  0  0  0  0  0  0  0  0  0  0
    6.3675   -0.7314   21.2869 N   0  0  0  0  0  0  0  0  0  0  0  0
    5.8662   -1.6882   20.4019 C   0  0  0  0  0  0  0  0  0  0  0  0
    5.1753   -2.6153   20.8243 O   0  0  0  0  0  0  0  0  0  0  0  0
    6.1738   -1.5849   18.9169 C   0  0  0  0  0  0  0  0  0  0  0  0
    5.8504   -0.2331   18.4430 N   0  0  0  0  0  0  0  0  0  0  0  0
    6.3356    0.3366   17.3566 N   0  0  0  0  0  0  0  0  0  0  0  0
    5.0018    0.6357   19.0588 C   0  0  0  0  0  0  0  0  0  0  0  0
    5.8172    1.5442   17.2592 C   0  0  0  0  0  0  0  0  0  0  0  0
    4.9889    1.7301   18.3302 N   0  0  0  0  0  0  0  0  0  0  0  0
    9.7027    2.7296   23.5098 H   0  0  0  0  0  0  0  0  0  0  0  0
   11.6652   -1.6543   23.4251 H   0  0  0  0  0  0  0  0  0  0  0  0
    9.3120   -1.3913   23.8036 H   0  0  0  0  0  0  0  0  0  0  0  0
    7.6923    1.4143   24.7408 H   0  0  0  0  0  0  0  0  0  0  0  0
    7.4173   -0.0434   24.0579 H   0  0  0  0  0  0  0  0  0  0  0  0
    5.3950    1.8285   21.9515 H   0  0  0  0  0  0  0  0  0  0  0  0
    5.3560    1.4628   23.5425 H   0  0  0  0  0  0  0  0  0  0  0  0
    8.8900    1.3716   21.6127 H   0  0  0  0  0  0  0  0  0  0  0  0
    7.5404    1.7454   20.7727 H   0  0  0  0  0  0  0  0  0  0  0  0
    4.5212   -0.2636   21.9906 H   0  0  0  0  0  0  0  0  0  0  0  0
    5.5582   -0.7635   23.1489 H   0  0  0  0  0  0  0  0  0  0  0  0
    8.3585   -0.8457   21.6771 H   0  0  0  0  0  0  0  0  0  0  0  0
    8.0148   -0.3926   20.1464 H   0  0  0  0  0  0  0  0  0  0  0  0
    5.6253   -2.2540   18.4155 H   0  0  0  0  0  0  0  0  0  0  0  0
    7.1449   -1.7682   18.7641 H   0  0  0  0  0  0  0  0  0  0  0  0
    4.4883    0.4731   19.9013 H   0  0  0  0  0  0  0  0  0  0  0  0
    5.9978    2.2061   16.5317 H   0  0  0  0  0  0  0  0  0  0  0  0
    7.3303    2.4997   22.8968 H   0  0  0  0  0  0  0  0  0  0  0  0
  1  2  1  0  0  0  0
  2  3  2  0  0  0  0
  2  4  1  0  0  0  0
  3  5  1  0  0  0  0
  3  6  1  0  0  0  0
  4  7  2  0  0  0  0
  6  8  2  0  0  0  0
  7  9  1  0  0  0  0
  9 10  1  0  0  0  0
 10 11  1  0  0  0  0
 10 12  1  0  0  0  0
 11 13  1  0  0  0  0
 12 14  1  0  0  0  0
 13 15  1  0  0  0  0
 15 16  1  0  0  0  0
 16 17  2  0  0  0  0
 16 18  1  0  0  0  0
 18 19  1  0  0  0  0
 19 20  1  0  0  0  0
 19 21  1  0  0  0  0
 20 22  2  0  0  0  0
 21 23  2  0  0  0  0
  7  8  1  0  0  0  0
 14 15  1  0  0  0  0
 22 23  1  0  0  0  0
  4 24  1  0  0  0  0
  6 25  1  0  0  0  0
  8 26  1  0  0  0  0
  9 27  1  0  0  0  0
  9 28  1  0  0  0  0
 11 29  1  0  0  0  0
 11 30  1  0  0  0  0
 12 31  1  0  0  0  0
 12 32  1  0  0  0  0
 13 33  1  0  0  0  0
 13 34  1  0  0  0  0
 14 35  1  0  0  0  0
 14 36  1  0  0  0  0
 18 37  1  0  0  0  0
 18 38  1  0  0  0  0
 21 39  1  0  0  0  0
 22 40  1  0  0  0  0
 10 41  1  0  0  0  0
M  CHG  1  10   1
M  END
> <BIOSOLVEIT.HYDE_ESTIMATED_AFFINITY_LOWER_BOUNDARY [nM]>
3221.626858

> <BIOSOLVEIT.HYDE_ESTIMATED_AFFINITY_UPPER_BOUNDARY [nM]>
320087.676087

> <BIOSOLVEIT.HYDE_LIGAND_EFFICIENCY range: ++, +, 0, -, -->
-

> <BIOSOLVEIT.HYDE_LIGAND_LIPOPHILIC_EFFICIENCY range: ++, +, 0, -, -->
0

> <BIOSOLVEIT.INTER_CLASH range: red, yellow, green>
green

> <BIOSOLVEIT.INTRA_CLASH range: red, yellow, green>
green

> <BIOSOLVEIT.LOGP>
0.5122

> <BIOSOLVEIT.MOLECULAR WEIGHT>
355.247

> <BIOSOLVEIT.MOLECULE_CHECKSUM>
LTI1LjY0ODsxLjExNTEz

> <BIOSOLVEIT.TORSION_QUALITY range: red, yellow, green, not rotatable>
red

> <BIOSOLVEIT.TPSA>
55.46

> <BIOSOLVEIT.SEESAR_FAVORITE>
favorite

> <smc_score>
0.75

> <QED_score>
0.842

> <distance>
0.676

> <SimilarityPheSA_1>
0.659

> <Smiles>
O=C(Cn1cncn1)N1CCN(Cc2ccc(Cl)c(Cl)c2)CC1

> <Similarity_SkelSpheres>
0.65

> <Cluster No>
274.0

> <QueryID>
MAT-POS-f7918075-5

> <SimilarityPheSA>
0.6588

> <Postera series>
3-aminopyridine-like

> <PDB_code>
Mpro-x11499

> <Approach>
DGM_focussed_RL

> <ID>
20210618_514

> <SimilarityPheSA_2>
0.75

> <OPTIBRIUM.logD>
0.777035

> <OPTIBRIUM.BBB category>
-

> <OPTIBRIUM.logP>
1.23483

> <OPTIBRIUM.P-gp category>
no

> <OPTIBRIUM.logS>
4.24861

> <OPTIBRIUM.HIA category>
+

> <OPTIBRIUM.PPB90 category>
low

> <OPTIBRIUM.2D6 affinity category>
low

> <OPTIBRIUM.hERG pIC50>
5.16558

> <OPTIBRIUM.2C9 pKi>
4.81004

> <OPTIBRIUM.BBB log([brain]:[blood])>
-0.750181

> <OPTIBRIUM.logS @ pH7.4>
2.77402

$$$$
Compound 1448_1_1
haSeeSAR  07122114383D 1   1.00000     0.00000     0
SeeSAR 11.0.2 hazemaj
 39 41  0  0  0  0            999 V2000
   13.6352   -1.2586   21.9010 Cl  0  0  0  0  0  0  0  0  0  0  0  0
   12.4095   -0.2600   22.7192 C   0  0  0  0  0  0  0  0  0  0  0  0
   11.2131   -0.8413   23.1264 C   0  0  0  0  0  0  0  0  0  0  0  0
   12.6621    1.0895   22.9415 C   0  0  0  0  0  0  0  0  0  0  0  0
   10.9920   -2.1338   22.9037 F   0  0  0  0  0  0  0  0  0  0  0  0
   10.2615   -0.0526   23.7644 C   0  0  0  0  0  0  0  0  0  0  0  0
   11.6951    1.8571   23.5819 C   0  0  0  0  0  0  0  0  0  0  0  0
   10.4912    1.2991   23.9982 C   0  0  0  0  0  0  0  0  0  0  0  0
    8.9506   -0.6777   24.2127 C   0  0  0  0  0  0  0  0  0  0  0  0
   12.0070    3.5853   23.8725 Cl  0  0  0  0  0  0  0  0  0  0  0  0
    7.8447    0.2502   23.9344 N   0  3  2  0  0  0  0  0  0  0  0  0
    6.5267   -0.3831   24.1197 C   0  0  0  0  0  0  0  0  0  0  0  0
    7.9551    0.8627   22.5977 C   0  0  0  0  0  0  0  0  0  0  0  0
    6.2217   -1.4533   23.0795 C   0  0  0  0  0  0  0  0  0  0  0  0
    7.7715   -0.1342   21.4630 C   0  0  0  0  0  0  0  0  0  0  0  0
    6.6372   -1.0326   21.7312 N   0  0  0  0  0  0  0  0  0  0  0  0
    5.8912   -1.4896   20.6429 C   0  0  0  0  0  0  0  0  0  0  0  0
    5.2113   -2.5104   20.7480 O   0  0  0  0  0  0  0  0  0  0  0  0
    5.9172   -0.7618   19.3896 C   0  0  0  0  0  0  0  0  0  0  0  0
    6.5498   -1.1500   18.2374 C   0  0  0  0  0  0  0  0  0  0  0  0
    5.2917    0.4834   19.1343 C   0  0  0  0  0  0  0  0  0  0  0  0
    6.3381   -0.2210   17.3112 O   0  0  0  0  0  0  0  0  0  0  0  0
    5.5990    0.7626   17.8263 C   0  0  0  0  0  0  0  0  0  0  0  0
   13.5244    1.5008   22.6460 H   0  0  0  0  0  0  0  0  0  0  0  0
    9.8026    1.8600   24.4579 H   0  0  0  0  0  0  0  0  0  0  0  0
    8.9893   -0.8653   25.1942 H   0  0  0  0  0  0  0  0  0  0  0  0
    8.8017   -1.5324   23.7156 H   0  0  0  0  0  0  0  0  0  0  0  0
    5.8230    0.3251   24.0623 H   0  0  0  0  0  0  0  0  0  0  0  0
    6.5018   -0.8051   25.0261 H   0  0  0  0  0  0  0  0  0  0  0  0
    8.8609    1.2777   22.5124 H   0  0  0  0  0  0  0  0  0  0  0  0
    7.2545    1.5713   22.5143 H   0  0  0  0  0  0  0  0  0  0  0  0
    5.2375   -1.6304   23.0751 H   0  0  0  0  0  0  0  0  0  0  0  0
    6.7101   -2.2912   23.3229 H   0  0  0  0  0  0  0  0  0  0  0  0
    8.6049   -0.6785   21.3675 H   0  0  0  0  0  0  0  0  0  0  0  0
    7.6002    0.3648   20.6135 H   0  0  0  0  0  0  0  0  0  0  0  0
    7.0802   -1.9889   18.1148 H   0  0  0  0  0  0  0  0  0  0  0  0
    4.7477    1.0355   19.7660 H   0  0  0  0  0  0  0  0  0  0  0  0
    5.3111    1.5828   17.3321 H   0  0  0  0  0  0  0  0  0  0  0  0
    7.9096    0.9916   24.6022 H   0  0  0  0  0  0  0  0  0  0  0  0
  1  2  1  0  0  0  0
  2  3  2  0  0  0  0
  2  4  1  0  0  0  0
  3  5  1  0  0  0  0
  3  6  1  0  0  0  0
  4  7  2  0  0  0  0
  6  8  2  0  0  0  0
  6  9  1  0  0  0  0
  7 10  1  0  0  0  0
  9 11  1  0  0  0  0
 11 12  1  0  0  0  0
 11 13  1  0  0  0  0
 12 14  1  0  0  0  0
 13 15  1  0  0  0  0
 14 16  1  0  0  0  0
 16 17  1  0  0  0  0
 17 18  2  0  0  0  0
 17 19  1  0  0  0  0
 19 20  2  0  0  0  0
 19 21  1  0  0  0  0
 20 22  1  0  0  0  0
 21 23  2  0  0  0  0
  7  8  1  0  0  0  0
 15 16  1  0  0  0  0
 22 23  1  0  0  0  0
  4 24  1  0  0  0  0
  8 25  1  0  0  0  0
  9 26  1  0  0  0  0
  9 27  1  0  0  0  0
 12 28  1  0  0  0  0
 12 29  1  0  0  0  0
 13 30  1  0  0  0  0
 13 31  1  0  0  0  0
 14 32  1  0  0  0  0
 14 33  1  0  0  0  0
 15 34  1  0  0  0  0
 15 35  1  0  0  0  0
 20 36  1  0  0  0  0
 21 37  1  0  0  0  0
 23 38  1  0  0  0  0
 11 39  1  0  0  0  0
M  CHG  1  11   1
M  END
> <BIOSOLVEIT.HYDE_ESTIMATED_AFFINITY_LOWER_BOUNDARY [nM]>
4054.950827

> <BIOSOLVEIT.HYDE_ESTIMATED_AFFINITY_UPPER_BOUNDARY [nM]>
402883.339475

> <BIOSOLVEIT.HYDE_LIGAND_EFFICIENCY range: ++, +, 0, -, -->
-

> <BIOSOLVEIT.HYDE_LIGAND_LIPOPHILIC_EFFICIENCY range: ++, +, 0, -, -->
-

> <BIOSOLVEIT.INTER_CLASH range: red, yellow, green>
green

> <BIOSOLVEIT.INTRA_CLASH range: red, yellow, green>
yellow

> <BIOSOLVEIT.LOGP>
2.2664

> <BIOSOLVEIT.MOLECULAR WEIGHT>
358.218

> <BIOSOLVEIT.MOLECULE_CHECKSUM>
LTI1LjA3Nzc7MS4wOTAzMw==

> <BIOSOLVEIT.TORSION_QUALITY range: red, yellow, green, not rotatable>
green

> <BIOSOLVEIT.TPSA>
37.89

> <BIOSOLVEIT.SEESAR_FAVORITE>
favorite

> <smc_score>
0.813

> <QED_score>
0.787

> <distance>
0.686

> <SimilarityPheSA_1>
0.681

> <Smiles>
O=C(c1ccoc1)N1CCN(Cc2cc(Cl)cc(Cl)c2F)CC1

> <Similarity_SkelSpheres>
0.658

> <Cluster No>
314.0

> <QueryID>
JAN-GHE-5a013bed-2

> <SimilarityPheSA>
0.6813

> <Postera series>
3-aminopyridine-like

> <PDB_code>
Mpro-x10466

> <Approach>
DGM_exploratory_RL

> <ID>
20210628_718

> <SimilarityPheSA_2>
0.82

> <OPTIBRIUM.logD>
1.81447

> <OPTIBRIUM.BBB category>
+

> <OPTIBRIUM.logP>
2.36562

> <OPTIBRIUM.P-gp category>
no

> <OPTIBRIUM.logS>
2.56013

> <OPTIBRIUM.HIA category>
+

> <OPTIBRIUM.PPB90 category>
high

> <OPTIBRIUM.2D6 affinity category>
medium

> <OPTIBRIUM.hERG pIC50>
5.47938

> <OPTIBRIUM.2C9 pKi>
5.123

> <OPTIBRIUM.BBB log([brain]:[blood])>
-0.0408494

> <OPTIBRIUM.logS @ pH7.4>
2.88853

$$$$
Compound 1310_1_3
haSeeSAR  07122114383D 1   1.00000     0.00000     0
SeeSAR 11.0.2 hazemaj
 37 38  0  0  0  0            999 V2000
   13.2859    0.9789   23.5543 Cl  0  0  0  0  0  0  0  0  0  0  0  0
   11.8734   -0.0651   23.2651 C   0  0  0  0  0  0  0  0  0  0  0  0
   10.6761    0.1767   23.9310 C   0  0  0  0  0  0  0  0  0  0  0  0
   11.9648   -1.1278   22.3715 C   0  0  0  0  0  0  0  0  0  0  0  0
   10.5826    1.2062   24.7994 O   0  0  0  0  0  0  0  0  0  0  0  0
    9.5783   -0.6459   23.6978 C   0  0  0  0  0  0  0  0  0  0  0  0
   13.5000   -1.4323   21.5236 Cl  0  0  0  0  0  0  0  0  0  0  0  0
   10.8682   -1.9506   22.1361 C   0  0  0  0  0  0  0  0  0  0  0  0
   10.2722    2.5085   24.3259 C   0  0  0  0  0  0  0  0  0  0  0  0
    9.6723   -1.7074   22.8037 C   0  0  0  0  0  0  0  0  0  0  0  0
    8.2668   -0.3871   24.4222 C   0  0  0  0  0  0  0  0  0  0  0  0
    7.2679   -0.0284   23.4789 O   0  0  0  0  0  0  0  0  0  0  0  0
    6.4126   -1.1386   23.2500 C   0  0  0  0  0  0  0  0  0  0  0  0
    6.0112   -1.1753   21.7845 C   0  0  0  0  0  0  0  0  0  0  0  0
    5.2745   -2.0705   21.3703 O   0  0  0  0  0  0  0  0  0  0  0  0
    6.4536   -0.2454   20.9539 N   0  0  0  0  0  0  0  0  0  0  0  0
    6.0652   -0.2810   19.5359 C   0  0  2  0  0  0  0  0  0  0  0  0
    7.2644   -0.1012   18.6411 C   0  0  0  0  0  0  0  0  0  0  0  0
    5.2500    0.9412   19.1646 C   0  0  0  0  0  0  0  0  0  0  0  0
    8.3788   -0.5494   18.8441 O   0  0  0  0  0  0  0  0  0  0  0  0
    6.9001    0.6590   17.5953 O   0  0  0  0  0  0  0  0  0  0  0  0
    5.5317    0.9983   17.6754 C   0  0  0  0  0  0  0  0  0  0  0  0
   10.9392   -2.7118   21.4914 H   0  0  0  0  0  0  0  0  0  0  0  0
   10.2429    3.1452   25.0966 H   0  0  0  0  0  0  0  0  0  0  0  0
   10.9735    2.8030   23.6767 H   0  0  0  0  0  0  0  0  0  0  0  0
    9.3817    2.4945   23.8711 H   0  0  0  0  0  0  0  0  0  0  0  0
    8.8802   -2.2957   22.6407 H   0  0  0  0  0  0  0  0  0  0  0  0
    8.3895    0.3582   25.0775 H   0  0  0  0  0  0  0  0  0  0  0  0
    7.9852   -1.2148   24.9076 H   0  0  0  0  0  0  0  0  0  0  0  0
    5.5939   -1.0513   23.8177 H   0  0  0  0  0  0  0  0  0  0  0  0
    6.8928   -1.9836   23.4854 H   0  0  0  0  0  0  0  0  0  0  0  0
    7.0520    0.4817   21.2903 H   0  0  0  0  0  0  0  0  0  0  0  0
    5.5737   -1.1238   19.3166 H   0  0  0  0  0  0  0  0  0  0  0  0
    5.5741    1.7614   19.6360 H   0  0  0  0  0  0  0  0  0  0  0  0
    4.2769    0.8104   19.3542 H   0  0  0  0  0  0  0  0  0  0  0  0
    5.3676    1.9161   17.3140 H   0  0  0  0  0  0  0  0  0  0  0  0
    4.9685    0.3385   17.1780 H   0  0  0  0  0  0  0  0  0  0  0  0
  1  2  1  0  0  0  0
  2  3  2  0  0  0  0
  2  4  1  0  0  0  0
  3  5  1  0  0  0  0
  3  6  1  0  0  0  0
  4  7  1  0  0  0  0
  4  8  2  0  0  0  0
  5  9  1  0  0  0  0
  6 10  2  0  0  0  0
  6 11  1  0  0  0  0
 11 12  1  0  0  0  0
 12 13  1  0  0  0  0
 13 14  1  0  0  0  0
 14 15  2  0  0  0  0
 14 16  1  0  0  0  0
 16 17  1  0  0  0  0
 17 18  1  0  0  0  0
 17 19  1  0  0  0  0
 18 20  2  0  0  0  0
 18 21  1  0  0  0  0
 19 22  1  0  0  0  0
  8 10  1  0  0  0  0
 21 22  1  0  0  0  0
  8 23  1  0  0  0  0
  9 24  1  0  0  0  0
  9 25  1  0  0  0  0
  9 26  1  0  0  0  0
 10 27  1  0  0  0  0
 11 28  1  0  0  0  0
 11 29  1  0  0  0  0
 13 30  1  0  0  0  0
 13 31  1  0  0  0  0
 16 32  1  0  0  0  0
 17 33  1  0  0  0  0
 19 34  1  0  0  0  0
 19 35  1  0  0  0  0
 22 36  1  0  0  0  0
 22 37  1  0  0  0  0
M  END
> <BIOSOLVEIT.HYDE_ESTIMATED_AFFINITY_LOWER_BOUNDARY [nM]>
16777.478015

> <BIOSOLVEIT.HYDE_ESTIMATED_AFFINITY_UPPER_BOUNDARY [nM]>
1666941.637111

> <BIOSOLVEIT.HYDE_LIGAND_EFFICIENCY range: ++, +, 0, -, -->
-

> <BIOSOLVEIT.HYDE_LIGAND_LIPOPHILIC_EFFICIENCY range: ++, +, 0, -, -->
--

> <BIOSOLVEIT.INTER_CLASH range: red, yellow, green>
green

> <BIOSOLVEIT.INTRA_CLASH range: red, yellow, green>
green

> <BIOSOLVEIT.LOGP>
1.9503

> <BIOSOLVEIT.MOLECULAR WEIGHT>
348.181

> <BIOSOLVEIT.MOLECULE_CHECKSUM>
LTIxLjU1NzM7MC45Nzk4Nzc=

> <BIOSOLVEIT.TORSION_QUALITY range: red, yellow, green, not rotatable>
green

> <BIOSOLVEIT.TPSA>
73.86

> <BIOSOLVEIT.SEESAR_FAVORITE>
favorite

> <smc_score>
0.563

> <QED_score>
0.796

> <distance>
0.703

> <SimilarityPheSA_1>
0.699

> <Smiles>
COc1c(COCC(=O)NC2CCOC2=O)ccc(Cl)c1Cl

> <Similarity_SkelSpheres>
0.613

> <Cluster No>
243.0

> <QueryID>
JAG-UCB-a3ef7265-20

> <SimilarityPheSA>
0.6986

> <Postera series>
3-aminopyridine-like

> <PDB_code>
Mpro-x10324

> <Approach>
DGM_exploratory_RL

> <ID>
20210628_580

> <SimilarityPheSA_2>
0.647

> <OPTIBRIUM.logD>
2.12933

> <OPTIBRIUM.BBB category>
-

> <OPTIBRIUM.logP>
2.12933

> <OPTIBRIUM.P-gp category>
no

> <OPTIBRIUM.logS>
2.77645

> <OPTIBRIUM.HIA category>
+

> <OPTIBRIUM.PPB90 category>
low

> <OPTIBRIUM.2D6 affinity category>
low

> <OPTIBRIUM.hERG pIC50>
3.82529

> <OPTIBRIUM.2C9 pKi>
4.49134

> <OPTIBRIUM.BBB log([brain]:[blood])>
-0.28124

> <OPTIBRIUM.logS @ pH7.4>
2.77645

$$$$
LIG_A_1101_1_05
haSeeSAR  07122114383D 1   1.00000     0.00000     0
SeeSAR 11.0.2 hazemaj
 47 49  0  0  0  0            999 V2000
    6.4217    1.4162   16.5594 O   0  0  0  0  0  0  0  0  0  0  0  0
    5.8507    1.1410   17.6178 C   0  0  0  0  0  0  0  0  0  0  0  0
    6.2781    0.1133   18.4969 C   0  0  0  0  0  0  0  0  0  0  0  0
    4.8006    1.9060   18.0559 N   0  0  0  0  0  0  0  0  0  0  0  0
    4.2113    1.7865   19.3081 C   0  0  0  0  0  0  0  0  0  0  0  0
    4.7036    0.8162   20.2100 C   0  0  0  0  0  0  0  0  0  0  0  0
    4.1797    0.8053   21.5187 C   0  0  0  0  0  0  0  0  0  0  0  0
    4.7574   -0.0934   22.3752 O   0  0  0  0  0  0  0  0  0  0  0  0
    4.3132   -0.1075   23.7317 C   0  0  0  0  0  0  0  0  0  0  0  0
    3.1680    1.6849   21.8820 C   0  0  0  0  0  0  0  0  0  0  0  0
    2.6679    2.5875   20.9595 C   0  0  0  0  0  0  0  0  0  0  0  0
    3.1882    2.6506   19.6804 C   0  0  0  0  0  0  0  0  0  0  0  0
    5.7607   -0.0877   19.7343 C   0  0  0  0  0  0  0  0  0  0  0  0
    6.2284   -1.2829   20.4944 C   0  0  0  0  0  0  0  0  0  0  0  0
    5.6036   -2.3409   20.4658 O   0  0  0  0  0  0  0  0  0  0  0  0
    7.3362   -1.1242   21.2209 N   0  0  0  0  0  0  0  0  0  0  0  0
    7.7853   -2.1162   22.1850 C   0  0  0  0  0  0  0  0  0  0  0  0
    9.2807   -2.2027   22.2487 C   0  0  0  0  0  0  0  0  0  0  0  0
    9.7872   -0.8761   22.4625 O   0  0  0  0  0  0  0  0  0  0  0  0
   11.1465   -0.6929   22.5282 C   0  0  0  0  0  0  0  0  0  0  0  0
   11.5676    0.5992   22.8981 C   0  0  0  0  0  0  0  0  0  0  0  0
   10.5585    1.4920   23.1464 O   0  0  0  0  0  0  0  0  0  0  0  0
   10.3303    1.8873   24.5008 C   0  0  0  0  0  0  0  0  0  0  0  0
   12.0877   -1.6576   22.1940 C   0  0  0  0  0  0  0  0  0  0  0  0
   13.4336   -1.3299   22.1937 C   0  0  0  0  0  0  0  0  0  0  0  0
   13.8485   -0.0622   22.5542 C   0  0  0  0  0  0  0  0  0  0  0  0
   12.9238    0.9030   22.9233 C   0  0  0  0  0  0  0  0  0  0  0  0
    7.0044   -0.4997   18.1857 H   0  0  0  0  0  0  0  0  0  0  0  0
    4.4343    2.5962   17.4319 H   0  0  0  0  0  0  0  0  0  0  0  0
    4.8161   -0.8068   24.2398 H   0  0  0  0  0  0  0  0  0  0  0  0
    4.4775    0.7879   24.1455 H   0  0  0  0  0  0  0  0  0  0  0  0
    3.3351   -0.3136   23.7601 H   0  0  0  0  0  0  0  0  0  0  0  0
    2.8003    1.6659   22.8118 H   0  0  0  0  0  0  0  0  0  0  0  0
    1.9225    3.2006   21.2212 H   0  0  0  0  0  0  0  0  0  0  0  0
    2.8297    3.3156   19.0253 H   0  0  0  0  0  0  0  0  0  0  0  0
    7.8777   -0.2924   21.0982 H   0  0  0  0  0  0  0  0  0  0  0  0
    7.4214   -3.0096   21.9217 H   0  0  0  0  0  0  0  0  0  0  0  0
    7.4376   -1.8679   23.0891 H   0  0  0  0  0  0  0  0  0  0  0  0
    9.6375   -2.5688   21.3893 H   0  0  0  0  0  0  0  0  0  0  0  0
    9.5553   -2.7977   23.0041 H   0  0  0  0  0  0  0  0  0  0  0  0
    9.5706    2.5367   24.5350 H   0  0  0  0  0  0  0  0  0  0  0  0
   10.1055    1.0821   25.0497 H   0  0  0  0  0  0  0  0  0  0  0  0
   11.1550    2.3196   24.8653 H   0  0  0  0  0  0  0  0  0  0  0  0
   11.7955   -2.5837   21.9550 H   0  0  0  0  0  0  0  0  0  0  0  0
   14.1109   -2.0168   21.9301 H   0  0  0  0  0  0  0  0  0  0  0  0
   14.8232    0.1609   22.5488 H   0  0  0  0  0  0  0  0  0  0  0  0
   13.2307    1.8117   23.2060 H   0  0  0  0  0  0  0  0  0  0  0  0
  1  2  2  0  0  0  0
  2  3  1  0  0  0  0
  2  4  1  0  0  0  0
  3 13  2  0  0  0  0
  4  5  1  0  0  0  0
  5  6  2  0  0  0  0
  5 12  1  0  0  0  0
  6  7  1  0  0  0  0
  6 13  1  0  0  0  0
  7  8  1  0  0  0  0
  7 10  2  0  0  0  0
  8  9  1  0  0  0  0
 10 11  1  0  0  0  0
 11 12  2  0  0  0  0
 13 14  1  0  0  0  0
 14 15  2  0  0  0  0
 14 16  1  0  0  0  0
 16 17  1  0  0  0  0
 17 18  1  0  0  0  0
 18 19  1  0  0  0  0
 19 20  1  0  0  0  0
 20 21  2  0  0  0  0
 20 24  1  0  0  0  0
 21 22  1  0  0  0  0
 21 27  1  0  0  0  0
 22 23  1  0  0  0  0
 24 25  2  0  0  0  0
 25 26  1  0  0  0  0
 26 27  2  0  0  0  0
  3 28  1  0  0  0  0
  4 29  1  0  0  0  0
  9 30  1  0  0  0  0
  9 31  1  0  0  0  0
  9 32  1  0  0  0  0
 10 33  1  0  0  0  0
 11 34  1  0  0  0  0
 12 35  1  0  0  0  0
 16 36  1  0  0  0  0
 17 37  1  0  0  0  0
 17 38  1  0  0  0  0
 18 39  1  0  0  0  0
 18 40  1  0  0  0  0
 23 41  1  0  0  0  0
 23 42  1  0  0  0  0
 23 43  1  0  0  0  0
 24 44  1  0  0  0  0
 25 45  1  0  0  0  0
 26 46  1  0  0  0  0
 27 47  1  0  0  0  0
M  END
> <BIOSOLVEIT.HYDE_ESTIMATED_AFFINITY_LOWER_BOUNDARY [nM]>
17387.463797

> <BIOSOLVEIT.HYDE_ESTIMATED_AFFINITY_UPPER_BOUNDARY [nM]>
1727547.331102

> <BIOSOLVEIT.HYDE_LIGAND_EFFICIENCY range: ++, +, 0, -, -->
--

> <BIOSOLVEIT.HYDE_LIGAND_LIPOPHILIC_EFFICIENCY range: ++, +, 0, -, -->
--

> <BIOSOLVEIT.INTER_CLASH range: red, yellow, green>
green

> <BIOSOLVEIT.INTRA_CLASH range: red, yellow, green>
red

> <BIOSOLVEIT.LOGP>
2.3541

> <BIOSOLVEIT.MOLECULAR WEIGHT>
368.387

> <BIOSOLVEIT.MOLECULE_CHECKSUM>
LTIxLjQ2ODg7MC43OTUxNA==

> <BIOSOLVEIT.TORSION_QUALITY range: red, yellow, green, not rotatable>
yellow

> <BIOSOLVEIT.TPSA>
89.65

> <BIOSOLVEIT.SEESAR_FAVORITE>
favorite

> <OPTIBRIUM.logD>
1.5503

> <OPTIBRIUM.BBB category>
-

> <OPTIBRIUM.logP>
1.5503

> <OPTIBRIUM.P-gp category>
no

> <OPTIBRIUM.logS>
1.53492

> <OPTIBRIUM.HIA category>
+

> <OPTIBRIUM.PPB90 category>
low

> <OPTIBRIUM.2D6 affinity category>
low

> <OPTIBRIUM.hERG pIC50>
4.52649

> <OPTIBRIUM.2C9 pKi>
5.07578

> <OPTIBRIUM.BBB log([brain]:[blood])>
-0.691341

> <OPTIBRIUM.logS @ pH7.4>
1.53492

$$$$
Compound 1310_1_2
haSeeSAR  07122114383D 1   1.00000     0.00000     0
SeeSAR 11.0.2 hazemaj
 37 38  0  0  0  0            999 V2000
   13.5247    1.4658   22.9250 Cl  0  0  0  0  0  0  0  0  0  0  0  0
   12.2342    0.2429   23.0180 C   0  0  0  0  0  0  0  0  0  0  0  0
   11.0571    0.5243   23.7044 C   0  0  0  0  0  0  0  0  0  0  0  0
   12.3919   -0.9973   22.4085 C   0  0  0  0  0  0  0  0  0  0  0  0
   10.8932    1.7254   24.2993 O   0  0  0  0  0  0  0  0  0  0  0  0
   10.0479   -0.4320   23.7769 C   0  0  0  0  0  0  0  0  0  0  0  0
   13.8984   -1.3561   21.5317 Cl  0  0  0  0  0  0  0  0  0  0  0  0
   11.3906   -1.9602   22.4754 C   0  0  0  0  0  0  0  0  0  0  0  0
   10.6792    2.8856   23.5091 C   0  0  0  0  0  0  0  0  0  0  0  0
   10.2177   -1.6688   23.1634 C   0  0  0  0  0  0  0  0  0  0  0  0
    8.7613   -0.1253   24.5264 C   0  0  0  0  0  0  0  0  0  0  0  0
    7.6923    0.0000   23.6002 O   0  0  0  0  0  0  0  0  0  0  0  0
    7.1713   -1.2869   23.3018 C   0  0  0  0  0  0  0  0  0  0  0  0
    6.2922   -1.2031   22.0646 C   0  0  0  0  0  0  0  0  0  0  0  0
    5.1949   -1.7609   22.0504 O   0  0  0  0  0  0  0  0  0  0  0  0
    6.7063   -0.5308   21.0030 N   0  0  0  0  0  0  0  0  0  0  0  0
    5.8557   -0.4498   19.8061 C   0  0  2  0  0  0  0  0  0  0  0  0
    6.5221    0.2992   18.6728 C   0  0  0  0  0  0  0  0  0  0  0  0
    4.6469    0.4420   19.9992 C   0  0  0  0  0  0  0  0  0  0  0  0
    7.2901   -0.1919   17.8622 O   0  0  0  0  0  0  0  0  0  0  0  0
    6.1367    1.5848   18.6898 O   0  0  0  0  0  0  0  0  0  0  0  0
    5.2567    1.8093   19.7692 C   0  0  0  0  0  0  0  0  0  0  0  0
   11.5123   -2.8497   22.0349 H   0  0  0  0  0  0  0  0  0  0  0  0
   10.5788    3.6816   24.1061 H   0  0  0  0  0  0  0  0  0  0  0  0
   11.4599    3.0225   22.8996 H   0  0  0  0  0  0  0  0  0  0  0  0
    9.8480    2.7699   22.9653 H   0  0  0  0  0  0  0  0  0  0  0  0
    9.4908   -2.3535   23.2174 H   0  0  0  0  0  0  0  0  0  0  0  0
    8.8662    0.7308   25.0323 H   0  0  0  0  0  0  0  0  0  0  0  0
    8.5629   -0.8682   25.1658 H   0  0  0  0  0  0  0  0  0  0  0  0
    6.6283   -1.6141   24.0750 H   0  0  0  0  0  0  0  0  0  0  0  0
    7.9259   -1.9209   23.1322 H   0  0  0  0  0  0  0  0  0  0  0  0
    7.5976   -0.0777   21.0146 H   0  0  0  0  0  0  0  0  0  0  0  0
    5.5764   -1.3631   19.5093 H   0  0  0  0  0  0  0  0  0  0  0  0
    4.2722    0.3577   20.9226 H   0  0  0  0  0  0  0  0  0  0  0  0
    3.9318    0.2415   19.3297 H   0  0  0  0  0  0  0  0  0  0  0  0
    5.7531    2.1226   20.5787 H   0  0  0  0  0  0  0  0  0  0  0  0
    4.5553    2.4799   19.5278 H   0  0  0  0  0  0  0  0  0  0  0  0
  1  2  1  0  0  0  0
  2  3  2  0  0  0  0
  2  4  1  0  0  0  0
  3  5  1  0  0  0  0
  3  6  1  0  0  0  0
  4  7  1  0  0  0  0
  4  8  2  0  0  0  0
  5  9  1  0  0  0  0
  6 10  2  0  0  0  0
  6 11  1  0  0  0  0
 11 12  1  0  0  0  0
 12 13  1  0  0  0  0
 13 14  1  0  0  0  0
 14 15  2  0  0  0  0
 14 16  1  0  0  0  0
 16 17  1  0  0  0  0
 17 18  1  0  0  0  0
 17 19  1  0  0  0  0
 18 20  2  0  0  0  0
 18 21  1  0  0  0  0
 19 22  1  0  0  0  0
  8 10  1  0  0  0  0
 21 22  1  0  0  0  0
  8 23  1  0  0  0  0
  9 24  1  0  0  0  0
  9 25  1  0  0  0  0
  9 26  1  0  0  0  0
 10 27  1  0  0  0  0
 11 28  1  0  0  0  0
 11 29  1  0  0  0  0
 13 30  1  0  0  0  0
 13 31  1  0  0  0  0
 16 32  1  0  0  0  0
 17 33  1  0  0  0  0
 19 34  1  0  0  0  0
 19 35  1  0  0  0  0
 22 36  1  0  0  0  0
 22 37  1  0  0  0  0
M  END
> <BIOSOLVEIT.HYDE_ESTIMATED_AFFINITY_LOWER_BOUNDARY [nM]>
18097.516214

> <BIOSOLVEIT.HYDE_ESTIMATED_AFFINITY_UPPER_BOUNDARY [nM]>
1798095.236858

> <BIOSOLVEIT.HYDE_LIGAND_EFFICIENCY range: ++, +, 0, -, -->
-

> <BIOSOLVEIT.HYDE_LIGAND_LIPOPHILIC_EFFICIENCY range: ++, +, 0, -, -->
--

> <BIOSOLVEIT.INTER_CLASH range: red, yellow, green>
green

> <BIOSOLVEIT.INTRA_CLASH range: red, yellow, green>
green

> <BIOSOLVEIT.LOGP>
1.9503

> <BIOSOLVEIT.MOLECULAR WEIGHT>
348.181

> <BIOSOLVEIT.MOLECULE_CHECKSUM>
LTIxLjM2OTY7MC45NzEzNDM=

> <BIOSOLVEIT.TORSION_QUALITY range: red, yellow, green, not rotatable>
yellow

> <BIOSOLVEIT.TPSA>
73.86

> <BIOSOLVEIT.SEESAR_FAVORITE>
favorite

> <smc_score>
0.563

> <QED_score>
0.796

> <distance>
0.703

> <SimilarityPheSA_1>
0.699

> <Smiles>
COc1c(COCC(=O)NC2CCOC2=O)ccc(Cl)c1Cl

> <Similarity_SkelSpheres>
0.613

> <Cluster No>
243.0

> <QueryID>
JAG-UCB-a3ef7265-20

> <SimilarityPheSA>
0.6986

> <Postera series>
3-aminopyridine-like

> <PDB_code>
Mpro-x10324

> <Approach>
DGM_exploratory_RL

> <ID>
20210628_580

> <SimilarityPheSA_2>
0.647

> <OPTIBRIUM.logD>
2.12933

> <OPTIBRIUM.BBB category>
-

> <OPTIBRIUM.logP>
2.12933

> <OPTIBRIUM.P-gp category>
no

> <OPTIBRIUM.logS>
2.77645

> <OPTIBRIUM.HIA category>
+

> <OPTIBRIUM.PPB90 category>
low

> <OPTIBRIUM.2D6 affinity category>
low

> <OPTIBRIUM.hERG pIC50>
3.82529

> <OPTIBRIUM.2C9 pKi>
4.49134

> <OPTIBRIUM.BBB log([brain]:[blood])>
-0.28124

> <OPTIBRIUM.logS @ pH7.4>
2.77645

$$$$
Compound 902_1_07
haSeeSAR  07122114383D 1   1.00000     0.00000     0
SeeSAR 11.0.2 hazemaj
 38 40  0  0  0  0            999 V2000
    4.1540    3.5867   23.5057 Cl  0  0  0  0  0  0  0  0  0  0  0  0
    4.6627    2.0998   22.6699 C   0  0  0  0  0  0  0  0  0  0  0  0
    4.6986    0.8960   23.3655 C   0  0  0  0  0  0  0  0  0  0  0  0
    5.0205    2.1525   21.3269 C   0  0  0  0  0  0  0  0  0  0  0  0
    4.2367    0.8474   25.0836 Cl  0  0  0  0  0  0  0  0  0  0  0  0
    5.0941   -0.2741   22.7262 C   0  0  0  0  0  0  0  0  0  0  0  0
    5.4160    0.9809   20.6902 C   0  0  0  0  0  0  0  0  0  0  0  0
    5.4530   -0.2247   21.3832 C   0  0  0  0  0  0  0  0  0  0  0  0
    5.7762    1.0352   19.3384 N   0  0  0  0  0  0  0  0  0  0  0  0
    5.8854   -1.5036   20.6845 C   0  0  0  0  0  0  0  0  0  0  0  0
    5.0140    1.4700   18.3549 N   0  0  0  0  0  0  0  0  0  0  0  0
    6.9752    0.6363   18.8243 C   0  0  0  0  0  0  0  0  0  0  0  0
    7.0999   -2.0263   21.3270 N   0  0  0  0  0  0  0  0  0  0  0  0
    5.6904    1.3695   17.2276 C   0  0  0  0  0  0  0  0  0  0  0  0
    6.9151    0.8413   17.5257 N   0  0  0  0  0  0  0  0  0  0  0  0
    7.0190   -3.0514   22.1595 C   0  0  0  0  0  0  0  0  0  0  0  0
    5.9268   -3.5674   22.3962 O   0  0  0  0  0  0  0  0  0  0  0  0
    8.2748   -3.5918   22.8239 C   0  0  0  0  0  0  0  0  0  0  0  0
    8.9499   -2.4809   23.6103 C   0  0  0  0  0  0  0  0  0  0  0  0
    8.3065   -1.9326   24.7150 C   0  0  0  0  0  0  0  0  0  0  0  0
   10.2030   -2.0309   23.2080 C   0  0  0  0  0  0  0  0  0  0  0  0
    8.9400   -0.9162   25.4217 C   0  0  0  0  0  0  0  0  0  0  0  0
   10.8150   -1.0133   23.9319 C   0  0  0  0  0  0  0  0  0  0  0  0
    8.3346   -0.3846   26.4794 F   0  0  0  0  0  0  0  0  0  0  0  0
   10.1932   -0.4483   25.0406 C   0  0  0  0  0  0  0  0  0  0  0  0
   12.0130   -0.5699   23.5628 F   0  0  0  0  0  0  0  0  0  0  0  0
    4.9939    3.0184   20.8274 H   0  0  0  0  0  0  0  0  0  0  0  0
    5.1203   -1.1400   23.2255 H   0  0  0  0  0  0  0  0  0  0  0  0
    6.0745   -1.3100   19.7219 H   0  0  0  0  0  0  0  0  0  0  0  0
    5.1546   -2.1830   20.7506 H   0  0  0  0  0  0  0  0  0  0  0  0
    7.7490    0.2613   19.3348 H   0  0  0  0  0  0  0  0  0  0  0  0
    7.9872   -1.6072   21.1347 H   0  0  0  0  0  0  0  0  0  0  0  0
    5.3660    1.6322   16.3189 H   0  0  0  0  0  0  0  0  0  0  0  0
    8.9018   -3.9330   22.1236 H   0  0  0  0  0  0  0  0  0  0  0  0
    8.0296   -4.3374   23.4435 H   0  0  0  0  0  0  0  0  0  0  0  0
    7.4055   -2.2632   24.9957 H   0  0  0  0  0  0  0  0  0  0  0  0
   10.6560   -2.4321   22.4118 H   0  0  0  0  0  0  0  0  0  0  0  0
   10.6404    0.2829   25.5557 H   0  0  0  0  0  0  0  0  0  0  0  0
  1  2  1  0  0  0  0
  2  3  2  0  0  0  0
  2  4  1  0  0  0  0
  3  5  1  0  0  0  0
  3  6  1  0  0  0  0
  4  7  2  0  0  0  0
  6  8  2  0  0  0  0
  7  9  1  0  0  0  0
  8 10  1  0  0  0  0
  9 11  1  0  0  0  0
  9 12  1  0  0  0  0
 10 13  1  0  0  0  0
 11 14  2  0  0  0  0
 12 15  2  0  0  0  0
 13 16  1  0  0  0  0
 16 17  2  0  0  0  0
 16 18  1  0  0  0  0
 18 19  1  0  0  0  0
 19 20  2  0  0  0  0
 19 21  1  0  0  0  0
 20 22  1  0  0  0  0
 21 23  2  0  0  0  0
 22 24  1  0  0  0  0
 22 25  2  0  0  0  0
 23 26  1  0  0  0  0
  7  8  1  0  0  0  0
 14 15  1  0  0  0  0
 23 25  1  0  0  0  0
  4 27  1  0  0  0  0
  6 28  1  0  0  0  0
 10 29  1  0  0  0  0
 10 30  1  0  0  0  0
 12 31  1  0  0  0  0
 13 32  1  0  0  0  0
 14 33  1  0  0  0  0
 18 34  1  0  0  0  0
 18 35  1  0  0  0  0
 20 36  1  0  0  0  0
 21 37  1  0  0  0  0
 25 38  1  0  0  0  0
M  END
> <BIOSOLVEIT.HYDE_ESTIMATED_AFFINITY_LOWER_BOUNDARY [nM]>
29007.353335

> <BIOSOLVEIT.HYDE_ESTIMATED_AFFINITY_UPPER_BOUNDARY [nM]>
2882052.058835

> <BIOSOLVEIT.HYDE_LIGAND_EFFICIENCY range: ++, +, 0, -, -->
--

> <BIOSOLVEIT.HYDE_LIGAND_LIPOPHILIC_EFFICIENCY range: ++, +, 0, -, -->
--

> <BIOSOLVEIT.INTER_CLASH range: red, yellow, green>
green

> <BIOSOLVEIT.INTRA_CLASH range: red, yellow, green>
green

> <BIOSOLVEIT.LOGP>
3.7112

> <BIOSOLVEIT.MOLECULAR WEIGHT>
397.211

> <BIOSOLVEIT.MOLECULE_CHECKSUM>
LTIwLjI7MC43NzY5MjU=

> <BIOSOLVEIT.TORSION_QUALITY range: red, yellow, green, not rotatable>
yellow

> <BIOSOLVEIT.TPSA>
59.81

> <BIOSOLVEIT.SEESAR_FAVORITE>
favorite

> <smc_score>
1.0

> <QED_score>
0.714

> <distance>
0.644

> <SimilarityPheSA_1>
0.716

> <Smiles>
O=C(Cc1cc(F)cc(F)c1)NCc1cc(Cl)c(Cl)cc1-n1cncn1

> <Similarity_SkelSpheres>
0.689

> <Cluster No>
71.0

> <QueryID>
ADA-UCB-6c2cb422-1

> <SimilarityPheSA>
0.7159

> <Postera series>
3-aminopyridine-like

> <PDB_code>
Mpro-x10959

> <Approach>
DGM_exploratory_RL

> <ID>
20210628_172

> <SimilarityPheSA_2>
0.697

> <OPTIBRIUM.logD>
3.07868

> <OPTIBRIUM.BBB category>
-

> <OPTIBRIUM.logP>
3.07868

> <OPTIBRIUM.P-gp category>
no

> <OPTIBRIUM.logS>
0.551042

> <OPTIBRIUM.HIA category>
+

> <OPTIBRIUM.PPB90 category>
high

> <OPTIBRIUM.2D6 affinity category>
medium

> <OPTIBRIUM.hERG pIC50>
4.94515

> <OPTIBRIUM.2C9 pKi>
5.43499

> <OPTIBRIUM.BBB log([brain]:[blood])>
-0.31882

> <OPTIBRIUM.logS @ pH7.4>
0.551042

$$$$
Compound 1466_1_03
haSeeSAR  07122114383D 1   1.00000     0.00000     0
SeeSAR 11.0.2 hazemaj
 37 39  0  0  0  0            999 V2000
    2.7997    2.8493   19.2514 Cl  0  0  0  0  0  0  0  0  0  0  0  0
    3.4714    1.7971   20.5206 C   0  0  0  0  0  0  0  0  0  0  0  0
    4.5734    0.9835   20.2757 C   0  0  0  0  0  0  0  0  0  0  0  0
    2.8769    1.7945   21.7785 C   0  0  0  0  0  0  0  0  0  0  0  0
    5.0771    0.1706   21.2872 C   0  0  0  0  0  0  0  0  0  0  0  0
    5.1790    1.0007   18.9577 C   0  0  0  0  0  0  0  0  0  0  0  0
    1.4668    2.8330   22.0990 Cl  0  0  0  0  0  0  0  0  0  0  0  0
    3.3711    0.9866   22.7972 C   0  0  0  0  0  0  0  0  0  0  0  0
    4.4731    0.1776   22.5400 C   0  0  0  0  0  0  0  0  0  0  0  0
    6.2786   -0.7330   21.0611 C   0  0  0  0  0  0  0  0  0  0  0  0
    5.2338    2.0353   18.1524 O   0  0  0  0  0  0  0  0  0  0  0  0
    5.7865   -0.0569   18.3521 C   0  0  0  0  0  0  0  0  0  0  0  0
    7.0136   -0.8960   22.3238 N   0  0  0  0  0  0  0  0  0  0  0  0
    5.8535    1.6684   17.0493 C   0  0  0  0  0  0  0  0  0  0  0  0
    6.2042    0.4026   17.1396 N   0  0  0  0  0  0  0  0  0  0  0  0
    6.8135   -1.9689   23.0718 C   0  0  0  0  0  0  0  0  0  0  0  0
    6.0120   -2.8304   22.7104 O   0  0  0  0  0  0  0  0  0  0  0  0
    7.5734   -2.1375   24.3774 C   0  0  0  0  0  0  0  0  0  0  0  0
    9.0405   -1.8610   24.1455 C   0  0  0  0  0  0  0  0  0  0  0  0
    9.6796   -0.6743   24.3965 N   0  0  0  0  0  0  0  0  0  0  0  0
    9.8245   -2.8574   23.6419 C   0  0  0  0  0  0  0  0  0  0  0  0
   10.9650   -0.6284   24.1344 C   0  0  0  0  0  0  0  0  0  0  0  0
   11.3734   -2.1682   23.5290 S   0  0  0  0  0  0  0  0  0  0  0  0
   11.9457    0.5244   24.2949 C   0  0  0  0  0  0  0  0  0  0  0  0
    2.9411    0.9873   23.6999 H   0  0  0  0  0  0  0  0  0  0  0  0
    4.8360   -0.4069   23.2658 H   0  0  0  0  0  0  0  0  0  0  0  0
    6.8803   -0.3224   20.3760 H   0  0  0  0  0  0  0  0  0  0  0  0
    5.9675   -1.6270   20.7387 H   0  0  0  0  0  0  0  0  0  0  0  0
    5.9020   -0.9792   18.7209 H   0  0  0  0  0  0  0  0  0  0  0  0
    7.6647   -0.1961   22.6174 H   0  0  0  0  0  0  0  0  0  0  0  0
    6.0306    2.2608   16.2633 H   0  0  0  0  0  0  0  0  0  0  0  0
    7.4592   -3.0733   24.7110 H   0  0  0  0  0  0  0  0  0  0  0  0
    7.2164   -1.4957   25.0561 H   0  0  0  0  0  0  0  0  0  0  0  0
    9.5491   -3.7863   23.3944 H   0  0  0  0  0  0  0  0  0  0  0  0
   12.8562    0.2304   24.0039 H   0  0  0  0  0  0  0  0  0  0  0  0
   11.6487    1.2956   23.7318 H   0  0  0  0  0  0  0  0  0  0  0  0
   11.9768    0.8046   25.2543 H   0  0  0  0  0  0  0  0  0  0  0  0
  1  2  1  0  0  0  0
  2  3  2  0  0  0  0
  2  4  1  0  0  0  0
  3  5  1  0  0  0  0
  3  6  1  0  0  0  0
  4  7  1  0  0  0  0
  4  8  2  0  0  0  0
  5  9  2  0  0  0  0
  5 10  1  0  0  0  0
  6 11  1  0  0  0  0
  6 12  2  0  0  0  0
 10 13  1  0  0  0  0
 11 14  1  0  0  0  0
 12 15  1  0  0  0  0
 13 16  1  0  0  0  0
 16 17  2  0  0  0  0
 16 18  1  0  0  0  0
 18 19  1  0  0  0  0
 19 20  1  0  0  0  0
 19 21  2  0  0  0  0
 20 22  2  0  0  0  0
 21 23  1  0  0  0  0
 22 24  1  0  0  0  0
  8  9  1  0  0  0  0
 14 15  2  0  0  0  0
 22 23  1  0  0  0  0
  8 25  1  0  0  0  0
  9 26  1  0  0  0  0
 10 27  1  0  0  0  0
 10 28  1  0  0  0  0
 12 29  1  0  0  0  0
 13 30  1  0  0  0  0
 14 31  1  0  0  0  0
 18 32  1  0  0  0  0
 18 33  1  0  0  0  0
 21 34  1  0  0  0  0
 24 35  1  0  0  0  0
 24 36  1  0  0  0  0
 24 37  1  0  0  0  0
M  END
> <BIOSOLVEIT.HYDE_ESTIMATED_AFFINITY_LOWER_BOUNDARY [nM]>
30433.014783

> <BIOSOLVEIT.HYDE_ESTIMATED_AFFINITY_UPPER_BOUNDARY [nM]>
3023699.952933

> <BIOSOLVEIT.HYDE_LIGAND_EFFICIENCY range: ++, +, 0, -, -->
--

> <BIOSOLVEIT.HYDE_LIGAND_LIPOPHILIC_EFFICIENCY range: ++, +, 0, -, -->
--

> <BIOSOLVEIT.INTER_CLASH range: red, yellow, green>
green

> <BIOSOLVEIT.INTRA_CLASH range: red, yellow, green>
red

> <BIOSOLVEIT.LOGP>
4.27222

> <BIOSOLVEIT.MOLECULAR WEIGHT>
382.269

> <BIOSOLVEIT.MOLECULE_CHECKSUM>
LTIwLjA4MTE7MC44MzY3MTM=

> <BIOSOLVEIT.TORSION_QUALITY range: red, yellow, green, not rotatable>
yellow

> <BIOSOLVEIT.TPSA>
68.02

> <BIOSOLVEIT.SEESAR_FAVORITE>
favorite

> <smc_score>
0.688

> <QED_score>
0.716

> <distance>
0.722

> <SimilarityPheSA_1>
0.698

> <Smiles>
Cc1nc(CC(=O)NCc2ccc(Cl)c(Cl)c2-c2cnco2)cs1

> <Similarity_SkelSpheres>
0.558

> <Cluster No>
325.0

> <QueryID>
PET-UNK-3c72d439-1

> <SimilarityPheSA>
0.6975

> <Postera series>
3-aminopyridine-like

> <PDB_code>
Mpro-x11810

> <Approach>
DGM_exploratory_RL

> <ID>
20210628_736

> <SimilarityPheSA_2>
0.641

> <OPTIBRIUM.logD>
3.9689

> <OPTIBRIUM.BBB category>
-

> <OPTIBRIUM.logP>
3.9689

> <OPTIBRIUM.P-gp category>
no

> <OPTIBRIUM.logS>
0.956208

> <OPTIBRIUM.HIA category>
+

> <OPTIBRIUM.PPB90 category>
high

> <OPTIBRIUM.2D6 affinity category>
medium

> <OPTIBRIUM.hERG pIC50>
4.35718

> <OPTIBRIUM.2C9 pKi>
5.56068

> <OPTIBRIUM.BBB log([brain]:[blood])>
-0.793273

> <OPTIBRIUM.logS @ pH7.4>
0.956208

$$$$
Compound 1466_1_02
haSeeSAR  07122114383D 1   1.00000     0.00000     0
SeeSAR 11.0.2 hazemaj
 37 39  0  0  0  0            999 V2000
    2.7997    2.8492   19.2514 Cl  0  0  0  0  0  0  0  0  0  0  0  0
    3.4714    1.7970   20.5206 C   0  0  0  0  0  0  0  0  0  0  0  0
    4.5735    0.9834   20.2756 C   0  0  0  0  0  0  0  0  0  0  0  0
    2.8770    1.7943   21.7785 C   0  0  0  0  0  0  0  0  0  0  0  0
    5.0772    0.1705   21.2872 C   0  0  0  0  0  0  0  0  0  0  0  0
    5.1790    1.0007   18.9577 C   0  0  0  0  0  0  0  0  0  0  0  0
    1.4668    2.8328   22.0991 Cl  0  0  0  0  0  0  0  0  0  0  0  0
    3.3712    0.9864   22.7971 C   0  0  0  0  0  0  0  0  0  0  0  0
    4.4732    0.1775   22.5400 C   0  0  0  0  0  0  0  0  0  0  0  0
    6.2788   -0.7330   21.0610 C   0  0  0  0  0  0  0  0  0  0  0  0
    5.2338    2.0353   18.1524 O   0  0  0  0  0  0  0  0  0  0  0  0
    5.7866   -0.0569   18.3521 C   0  0  0  0  0  0  0  0  0  0  0  0
    7.0137   -0.8961   22.3238 N   0  0  0  0  0  0  0  0  0  0  0  0
    5.8535    1.6684   17.0492 C   0  0  0  0  0  0  0  0  0  0  0  0
    6.2042    0.4026   17.1395 N   0  0  0  0  0  0  0  0  0  0  0  0
    6.8135   -1.9690   23.0716 C   0  0  0  0  0  0  0  0  0  0  0  0
    6.0120   -2.8305   22.7102 O   0  0  0  0  0  0  0  0  0  0  0  0
    7.5734   -2.1377   24.3773 C   0  0  0  0  0  0  0  0  0  0  0  0
    9.0405   -1.8612   24.1455 C   0  0  0  0  0  0  0  0  0  0  0  0
    9.6795   -0.6745   24.3966 N   0  0  0  0  0  0  0  0  0  0  0  0
    9.8246   -2.8575   23.6419 C   0  0  0  0  0  0  0  0  0  0  0  0
   10.9649   -0.6286   24.1345 C   0  0  0  0  0  0  0  0  0  0  0  0
   11.3734   -2.1683   23.5290 S   0  0  0  0  0  0  0  0  0  0  0  0
   11.9457    0.5243   24.2950 C   0  0  0  0  0  0  0  0  0  0  0  0
    2.9412    0.9871   23.6999 H   0  0  0  0  0  0  0  0  0  0  0  0
    4.8362   -0.4070   23.2658 H   0  0  0  0  0  0  0  0  0  0  0  0
    6.8805   -0.3223   20.3759 H   0  0  0  0  0  0  0  0  0  0  0  0
    5.9677   -1.6270   20.7385 H   0  0  0  0  0  0  0  0  0  0  0  0
    5.9021   -0.9792   18.7208 H   0  0  0  0  0  0  0  0  0  0  0  0
    7.6648   -0.1963   22.6174 H   0  0  0  0  0  0  0  0  0  0  0  0
    6.0305    2.2608   16.2633 H   0  0  0  0  0  0  0  0  0  0  0  0
    7.4592   -3.0735   24.7108 H   0  0  0  0  0  0  0  0  0  0  0  0
    7.2164   -1.4959   25.0560 H   0  0  0  0  0  0  0  0  0  0  0  0
    9.5491   -3.7865   23.3944 H   0  0  0  0  0  0  0  0  0  0  0  0
   12.8562    0.2303   24.0040 H   0  0  0  0  0  0  0  0  0  0  0  0
   11.6486    1.2954   23.7318 H   0  0  0  0  0  0  0  0  0  0  0  0
   11.9766    0.8045   25.2543 H   0  0  0  0  0  0  0  0  0  0  0  0
  1  2  1  0  0  0  0
  2  3  2  0  0  0  0
  2  4  1  0  0  0  0
  3  5  1  0  0  0  0
  3  6  1  0  0  0  0
  4  7  1  0  0  0  0
  4  8  2  0  0  0  0
  5  9  2  0  0  0  0
  5 10  1  0  0  0  0
  6 11  1  0  0  0  0
  6 12  2  0  0  0  0
 10 13  1  0  0  0  0
 11 14  1  0  0  0  0
 12 15  1  0  0  0  0
 13 16  1  0  0  0  0
 16 17  2  0  0  0  0
 16 18  1  0  0  0  0
 18 19  1  0  0  0  0
 19 20  1  0  0  0  0
 19 21  2  0  0  0  0
 20 22  2  0  0  0  0
 21 23  1  0  0  0  0
 22 24  1  0  0  0  0
  8  9  1  0  0  0  0
 14 15  2  0  0  0  0
 22 23  1  0  0  0  0
  8 25  1  0  0  0  0
  9 26  1  0  0  0  0
 10 27  1  0  0  0  0
 10 28  1  0  0  0  0
 12 29  1  0  0  0  0
 13 30  1  0  0  0  0
 14 31  1  0  0  0  0
 18 32  1  0  0  0  0
 18 33  1  0  0  0  0
 21 34  1  0  0  0  0
 24 35  1  0  0  0  0
 24 36  1  0  0  0  0
 24 37  1  0  0  0  0
M  END
> <BIOSOLVEIT.HYDE_ESTIMATED_AFFINITY_LOWER_BOUNDARY [nM]>
30449.124084

> <BIOSOLVEIT.HYDE_ESTIMATED_AFFINITY_UPPER_BOUNDARY [nM]>
3025300.507202

> <BIOSOLVEIT.HYDE_LIGAND_EFFICIENCY range: ++, +, 0, -, -->
--

> <BIOSOLVEIT.HYDE_LIGAND_LIPOPHILIC_EFFICIENCY range: ++, +, 0, -, -->
--

> <BIOSOLVEIT.INTER_CLASH range: red, yellow, green>
green

> <BIOSOLVEIT.INTRA_CLASH range: red, yellow, green>
red

> <BIOSOLVEIT.LOGP>
4.27222

> <BIOSOLVEIT.MOLECULAR WEIGHT>
382.269

> <BIOSOLVEIT.MOLECULE_CHECKSUM>
LTIwLjA3OTg7MC44MzY2NTg=

> <BIOSOLVEIT.TORSION_QUALITY range: red, yellow, green, not rotatable>
yellow

> <BIOSOLVEIT.TPSA>
68.02

> <BIOSOLVEIT.SEESAR_FAVORITE>
favorite

> <smc_score>
0.688

> <QED_score>
0.716

> <distance>
0.722

> <SimilarityPheSA_1>
0.698

> <Smiles>
Cc1nc(CC(=O)NCc2ccc(Cl)c(Cl)c2-c2cnco2)cs1

> <Similarity_SkelSpheres>
0.558

> <Cluster No>
325.0

> <QueryID>
PET-UNK-3c72d439-1

> <SimilarityPheSA>
0.6975

> <Postera series>
3-aminopyridine-like

> <PDB_code>
Mpro-x11810

> <Approach>
DGM_exploratory_RL

> <ID>
20210628_736

> <SimilarityPheSA_2>
0.641

> <OPTIBRIUM.logD>
3.9689

> <OPTIBRIUM.BBB category>
-

> <OPTIBRIUM.logP>
3.9689

> <OPTIBRIUM.P-gp category>
no

> <OPTIBRIUM.logS>
0.956208

> <OPTIBRIUM.HIA category>
+

> <OPTIBRIUM.PPB90 category>
high

> <OPTIBRIUM.2D6 affinity category>
medium

> <OPTIBRIUM.hERG pIC50>
4.35718

> <OPTIBRIUM.2C9 pKi>
5.56068

> <OPTIBRIUM.BBB log([brain]:[blood])>
-0.793273

> <OPTIBRIUM.logS @ pH7.4>
0.956208

$$$$
Compound 1098_1_2
haSeeSAR  07122114383D 1   1.00000     0.00000     0
SeeSAR 11.0.2 hazemaj
 41 43  0  0  0  0            999 V2000
   12.6035    3.5260   21.7394 Cl  0  0  0  0  0  0  0  0  0  0  0  0
   11.5666    2.2513   22.4242 C   0  0  0  0  0  0  0  0  0  0  0  0
   12.1412    1.0781   22.8989 C   0  0  0  0  0  0  0  0  0  0  0  0
   10.1908    2.4423   22.4776 C   0  0  0  0  0  0  0  0  0  0  0  0
   13.9054    0.8550   22.8218 Cl  0  0  0  0  0  0  0  0  0  0  0  0
   11.3466    0.0711   23.4363 C   0  0  0  0  0  0  0  0  0  0  0  0
    9.3988    1.4341   23.0160 C   0  0  0  0  0  0  0  0  0  0  0  0
    9.9697    0.2590   23.4902 C   0  0  0  0  0  0  0  0  0  0  0  0
    8.0809    1.5985   23.0767 F   0  0  0  0  0  0  0  0  0  0  0  0
    9.0880   -0.8325   24.0758 C   0  0  0  0  0  0  0  0  0  0  0  0
    9.2808   -2.0773   23.3181 N   0  3  1  0  0  0  0  0  0  0  0  0
    8.0515   -2.8704   23.4850 C   0  0  0  0  0  0  0  0  0  0  0  0
    9.6451   -1.7852   21.9241 C   0  0  0  0  0  0  0  0  0  0  0  0
    7.3900   -3.3094   22.1902 C   0  0  0  0  0  0  0  0  0  0  0  0
    8.4638   -1.2719   21.1182 C   0  0  0  0  0  0  0  0  0  0  0  0
    7.2952   -2.1509   21.2859 N   0  0  0  0  0  0  0  0  0  0  0  0
    6.1011   -1.9178   20.5976 C   0  0  0  0  0  0  0  0  0  0  0  0
    5.1224   -2.6359   20.8022 O   0  0  0  0  0  0  0  0  0  0  0  0
    6.0151   -0.8298   19.6426 C   0  0  0  0  0  0  0  0  0  0  0  0
    6.6062   -0.9023   18.3855 C   0  0  0  0  0  0  0  0  0  0  0  0
    5.3242    0.3278   19.9830 C   0  0  0  0  0  0  0  0  0  0  0  0
    6.5135    0.1180   17.5197 N   0  0  0  0  0  0  0  0  0  0  0  0
    5.2357    1.3774   19.0748 C   0  0  0  0  0  0  0  0  0  0  0  0
    5.8497    1.2401   17.8343 C   0  0  0  0  0  0  0  0  0  0  0  0
    9.7792    3.2872   22.1359 H   0  0  0  0  0  0  0  0  0  0  0  0
   11.7584   -0.7736   23.7782 H   0  0  0  0  0  0  0  0  0  0  0  0
    8.1295   -0.5530   24.0193 H   0  0  0  0  0  0  0  0  0  0  0  0
    9.3354   -0.9832   25.0329 H   0  0  0  0  0  0  0  0  0  0  0  0
    7.3937   -2.3188   23.9978 H   0  0  0  0  0  0  0  0  0  0  0  0
    8.2802   -3.6901   24.0100 H   0  0  0  0  0  0  0  0  0  0  0  0
    9.9860   -2.6231   21.4978 H   0  0  0  0  0  0  0  0  0  0  0  0
   10.3651   -1.0913   21.9179 H   0  0  0  0  0  0  0  0  0  0  0  0
    6.4738   -3.6601   22.3836 H   0  0  0  0  0  0  0  0  0  0  0  0
    7.9377   -4.0270   21.7601 H   0  0  0  0  0  0  0  0  0  0  0  0
    8.7153   -1.2417   20.1509 H   0  0  0  0  0  0  0  0  0  0  0  0
    8.2291   -0.3514   21.4306 H   0  0  0  0  0  0  0  0  0  0  0  0
    7.1075   -1.7269   18.1235 H   0  0  0  0  0  0  0  0  0  0  0  0
    4.8908    0.4057   20.8808 H   0  0  0  0  0  0  0  0  0  0  0  0
    4.7407    2.2141   19.3089 H   0  0  0  0  0  0  0  0  0  0  0  0
    5.7957    1.9857   17.1702 H   0  0  0  0  0  0  0  0  0  0  0  0
   10.0354   -2.5823   23.7370 H   0  0  0  0  0  0  0  0  0  0  0  0
  1  2  1  0  0  0  0
  2  3  2  0  0  0  0
  2  4  1  0  0  0  0
  3  5  1  0  0  0  0
  3  6  1  0  0  0  0
  4  7  2  0  0  0  0
  6  8  2  0  0  0  0
  7  9  1  0  0  0  0
  8 10  1  0  0  0  0
 10 11  1  0  0  0  0
 11 12  1  0  0  0  0
 11 13  1  0  0  0  0
 12 14  1  0  0  0  0
 13 15  1  0  0  0  0
 14 16  1  0  0  0  0
 16 17  1  0  0  0  0
 17 18  2  0  0  0  0
 17 19  1  0  0  0  0
 19 20  2  0  0  0  0
 19 21  1  0  0  0  0
 20 22  1  0  0  0  0
 21 23  2  0  0  0  0
 22 24  2  0  0  0  0
  7  8  1  0  0  0  0
 15 16  1  0  0  0  0
 23 24  1  0  0  0  0
  4 25  1  0  0  0  0
  6 26  1  0  0  0  0
 10 27  1  0  0  0  0
 10 28  1  0  0  0  0
 12 29  1  0  0  0  0
 12 30  1  0  0  0  0
 13 31  1  0  0  0  0
 13 32  1  0  0  0  0
 14 33  1  0  0  0  0
 14 34  1  0  0  0  0
 15 35  1  0  0  0  0
 15 36  1  0  0  0  0
 20 37  1  0  0  0  0
 21 38  1  0  0  0  0
 23 39  1  0  0  0  0
 24 40  1  0  0  0  0
 11 41  1  0  0  0  0
M  CHG  1  11   1
M  END
> <BIOSOLVEIT.HYDE_ESTIMATED_AFFINITY_LOWER_BOUNDARY [nM]>
34646.073797

> <BIOSOLVEIT.HYDE_ESTIMATED_AFFINITY_UPPER_BOUNDARY [nM]>
3442292.275552

> <BIOSOLVEIT.HYDE_LIGAND_EFFICIENCY range: ++, +, 0, -, -->
--

> <BIOSOLVEIT.HYDE_LIGAND_LIPOPHILIC_EFFICIENCY range: ++, +, 0, -, -->
--

> <BIOSOLVEIT.INTER_CLASH range: red, yellow, green>
yellow

> <BIOSOLVEIT.INTRA_CLASH range: red, yellow, green>
yellow

> <BIOSOLVEIT.LOGP>
2.0684

> <BIOSOLVEIT.MOLECULAR WEIGHT>
369.245

> <BIOSOLVEIT.MOLECULE_CHECKSUM>
LTE5Ljc1OTc7MC44MjMzMjE=

> <BIOSOLVEIT.TORSION_QUALITY range: red, yellow, green, not rotatable>
green

> <BIOSOLVEIT.TPSA>
37.64

> <BIOSOLVEIT.SEESAR_FAVORITE>
favorite

> <smc_score>
1.0

> <QED_score>
0.779

> <distance>
0.682

> <SimilarityPheSA_1>
0.692

> <Smiles>
O=C(c1cccnc1)N1CCN(Cc2cc(Cl)c(Cl)cc2F)CC1

> <Similarity_SkelSpheres>
0.676

> <Cluster No>
152.0

> <QueryID>
MAT-POS-f7918075-5

> <SimilarityPheSA>
0.6917

> <Postera series>
3-aminopyridine-like

> <PDB_code>
Mpro-x11499

> <Approach>
DGM_exploratory_RL

> <ID>
20210628_368

> <SimilarityPheSA_2>
0.777

> <OPTIBRIUM.logD>
1.63036

> <OPTIBRIUM.BBB category>
+

> <OPTIBRIUM.logP>
1.97494

> <OPTIBRIUM.P-gp category>
no

> <OPTIBRIUM.logS>
2.4618

> <OPTIBRIUM.HIA category>
+

> <OPTIBRIUM.PPB90 category>
high

> <OPTIBRIUM.2D6 affinity category>
medium

> <OPTIBRIUM.hERG pIC50>
5.47857

> <OPTIBRIUM.2C9 pKi>
5.16613

> <OPTIBRIUM.BBB log([brain]:[blood])>
-0.0915014

> <OPTIBRIUM.logS @ pH7.4>
1.79483

$$$$
Compound 1411_1_02
haSeeSAR  07122114383D 1   1.00000     0.00000     0
SeeSAR 11.0.2 hazemaj
 45 48  0  0  0  0            999 V2000
    3.1605   -5.0286   28.1336 Cl  0  0  0  0  0  0  0  0  0  0  0  0
    3.4084   -3.5708   27.1420 C   0  0  0  0  0  0  0  0  0  0  0  0
    2.4727   -2.5424   27.1713 C   0  0  0  0  0  0  0  0  0  0  0  0
    4.5426   -3.4722   26.3443 C   0  0  0  0  0  0  0  0  0  0  0  0
    1.0286   -2.6939   28.2005 Cl  0  0  0  0  0  0  0  0  0  0  0  0
    2.6574   -1.3981   26.4016 C   0  0  0  0  0  0  0  0  0  0  0  0
    4.7217   -2.3267   25.5769 C   0  0  0  0  0  0  0  0  0  0  0  0
    3.7899   -1.2947   25.6008 C   0  0  0  0  0  0  0  0  0  0  0  0
    5.9560   -2.2015   24.6993 C   0  0  0  0  0  0  0  0  0  0  0  0
    5.8875   -1.3404   23.4477 C   0  0  0  0  0  0  0  0  0  0  0  0
    6.8169   -3.4292   24.6055 C   0  0  0  0  0  0  0  0  0  0  0  0
    7.2826   -2.2448   25.4028 C   0  0  0  0  0  0  0  0  0  0  0  0
    5.4098   -1.7996   22.4102 O   0  0  0  0  0  0  0  0  0  0  0  0
    6.3411   -0.0980   23.4739 N   0  0  0  0  0  0  0  0  0  0  0  0
    6.2749    0.7344   22.2641 C   0  0  0  0  0  0  0  0  0  0  0  0
    4.8509    1.2289   22.0665 C   0  0  0  0  0  0  0  0  0  0  0  0
    4.2696    1.2850   20.8028 C   0  0  0  0  0  0  0  0  0  0  0  0
    4.1266    1.6305   23.1842 C   0  0  0  0  0  0  0  0  0  0  0  0
    5.0014    0.8727   19.6203 C   0  0  0  0  0  0  0  0  0  0  0  0
    2.9650    1.7408   20.6437 C   0  0  0  0  0  0  0  0  0  0  0  0
    2.8212    2.0872   23.0306 C   0  0  0  0  0  0  0  0  0  0  0  0
    5.5991   -0.3823   19.5743 C   0  0  0  0  0  0  0  0  0  0  0  0
    5.1068    1.7320   18.5319 C   0  0  0  0  0  0  0  0  0  0  0  0
    2.2459    2.1409   21.7650 C   0  0  0  0  0  0  0  0  0  0  0  0
    2.1238    2.4715   24.0943 F   0  0  0  0  0  0  0  0  0  0  0  0
    6.2931   -0.7468   18.4256 C   0  0  0  0  0  0  0  0  0  0  0  0
    5.8139    1.3055   17.4130 C   0  0  0  0  0  0  0  0  0  0  0  0
    0.9975    2.5789   21.6292 F   0  0  0  0  0  0  0  0  0  0  0  0
    6.3849    0.0923   17.3833 N   0  0  0  0  0  0  0  0  0  0  0  0
    5.2164   -4.2107   26.3227 H   0  0  0  0  0  0  0  0  0  0  0  0
    1.9841   -0.6590   26.4240 H   0  0  0  0  0  0  0  0  0  0  0  0
    3.9340   -0.4780   25.0419 H   0  0  0  0  0  0  0  0  0  0  0  0
    7.2671   -3.6594   23.7428 H   0  0  0  0  0  0  0  0  0  0  0  0
    6.5420   -4.2695   25.0726 H   0  0  0  0  0  0  0  0  0  0  0  0
    7.3178   -2.2965   26.4009 H   0  0  0  0  0  0  0  0  0  0  0  0
    8.0429   -1.6864   25.0710 H   0  0  0  0  0  0  0  0  0  0  0  0
    6.7292    0.2750   24.3168 H   0  0  0  0  0  0  0  0  0  0  0  0
    6.5526    0.1923   21.4709 H   0  0  0  0  0  0  0  0  0  0  0  0
    6.8889    1.5174   22.3642 H   0  0  0  0  0  0  0  0  0  0  0  0
    4.5417    1.5913   24.0930 H   0  0  0  0  0  0  0  0  0  0  0  0
    2.5495    1.7801   19.7349 H   0  0  0  0  0  0  0  0  0  0  0  0
    5.5312   -1.0091   20.3505 H   0  0  0  0  0  0  0  0  0  0  0  0
    4.6830    2.6375   18.5535 H   0  0  0  0  0  0  0  0  0  0  0  0
    6.7289   -1.6455   18.3761 H   0  0  0  0  0  0  0  0  0  0  0  0
    5.8976    1.9105   16.6211 H   0  0  0  0  0  0  0  0  0  0  0  0
  1  2  1  0  0  0  0
  2  3  2  0  0  0  0
  2  4  1  0  0  0  0
  3  5  1  0  0  0  0
  3  6  1  0  0  0  0
  4  7  2  0  0  0  0
  6  8  2  0  0  0  0
  7  9  1  0  0  0  0
  9 10  1  0  0  0  0
  9 11  1  0  0  0  0
  9 12  1  0  0  0  0
 10 13  2  0  0  0  0
 10 14  1  0  0  0  0
 14 15  1  0  0  0  0
 15 16  1  0  0  0  0
 16 17  2  0  0  0  0
 16 18  1  0  0  0  0
 17 19  1  0  0  0  0
 17 20  1  0  0  0  0
 18 21  2  0  0  0  0
 19 22  2  0  0  0  0
 19 23  1  0  0  0  0
 20 24  2  0  0  0  0
 21 25  1  0  0  0  0
 22 26  1  0  0  0  0
 23 27  2  0  0  0  0
 24 28  1  0  0  0  0
 26 29  2  0  0  0  0
  7  8  1  0  0  0  0
 11 12  1  0  0  0  0
 21 24  1  0  0  0  0
 27 29  1  0  0  0  0
  4 30  1  0  0  0  0
  6 31  1  0  0  0  0
  8 32  1  0  0  0  0
 11 33  1  0  0  0  0
 11 34  1  0  0  0  0
 12 35  1  0  0  0  0
 12 36  1  0  0  0  0
 14 37  1  0  0  0  0
 15 38  1  0  0  0  0
 15 39  1  0  0  0  0
 18 40  1  0  0  0  0
 20 41  1  0  0  0  0
 22 42  1  0  0  0  0
 23 43  1  0  0  0  0
 26 44  1  0  0  0  0
 27 45  1  0  0  0  0
M  END
> <BIOSOLVEIT.HYDE_ESTIMATED_AFFINITY_LOWER_BOUNDARY [nM]>
36362.633878

> <BIOSOLVEIT.HYDE_ESTIMATED_AFFINITY_UPPER_BOUNDARY [nM]>
3612842.668677

> <BIOSOLVEIT.HYDE_LIGAND_EFFICIENCY range: ++, +, 0, -, -->
--

> <BIOSOLVEIT.HYDE_LIGAND_LIPOPHILIC_EFFICIENCY range: ++, +, 0, -, -->
--

> <BIOSOLVEIT.INTER_CLASH range: red, yellow, green>
green

> <BIOSOLVEIT.INTRA_CLASH range: red, yellow, green>
yellow

> <BIOSOLVEIT.LOGP>
5.6816

> <BIOSOLVEIT.MOLECULAR WEIGHT>
433.283

> <BIOSOLVEIT.MOLECULE_CHECKSUM>
LTE5LjYzOTg7MC42NzcyMzU=

> <BIOSOLVEIT.TORSION_QUALITY range: red, yellow, green, not rotatable>
green

> <BIOSOLVEIT.TPSA>
41.99

> <BIOSOLVEIT.SEESAR_FAVORITE>
favorite

> <smc_score>
1.0

> <QED_score>
0.563

> <distance>
0.682

> <SimilarityPheSA_1>
0.721

> <Smiles>
O=C(NCc1cc(F)c(F)cc1-c1ccncc1)C1(c2ccc(Cl)c(Cl)c2)CC1

> <Similarity_SkelSpheres>
0.638

> <Cluster No>
298.0

> <QueryID>
MAT-POS-f7918075-5

> <SimilarityPheSA>
0.7205

> <Postera series>
3-aminopyridine-like

> <PDB_code>
Mpro-x11499

> <Approach>
DGM_exploratory_RL

> <ID>
20210628_681

> <SimilarityPheSA_2>
0.678

> <OPTIBRIUM.logD>
4.54681

> <OPTIBRIUM.BBB category>
+

> <OPTIBRIUM.logP>
4.54681

> <OPTIBRIUM.P-gp category>
no

> <OPTIBRIUM.logS>
-0.972023

> <OPTIBRIUM.HIA category>
+

> <OPTIBRIUM.PPB90 category>
high

> <OPTIBRIUM.2D6 affinity category>
medium

> <OPTIBRIUM.hERG pIC50>
4.96544

> <OPTIBRIUM.2C9 pKi>
6.11389

> <OPTIBRIUM.BBB log([brain]:[blood])>
-0.238017

> <OPTIBRIUM.logS @ pH7.4>
-0.972023

$$$$
Compound 1411_1_04
haSeeSAR  07122114383D 1   1.00000     0.00000     0
SeeSAR 11.0.2 hazemaj
 45 48  0  0  0  0            999 V2000
    1.0104   -0.1079   26.1550 Cl  0  0  0  0  0  0  0  0  0  0  0  0
    2.2874   -1.3450   26.2479 C   0  0  0  0  0  0  0  0  0  0  0  0
    2.0965   -2.4850   27.0213 C   0  0  0  0  0  0  0  0  0  0  0  0
    3.4700   -1.1603   25.5410 C   0  0  0  0  0  0  0  0  0  0  0  0
    0.5735   -2.6970   27.9175 Cl  0  0  0  0  0  0  0  0  0  0  0  0
    3.0872   -3.4587   27.0996 C   0  0  0  0  0  0  0  0  0  0  0  0
    4.4567   -2.1363   25.6233 C   0  0  0  0  0  0  0  0  0  0  0  0
    4.2729   -3.2784   26.3952 C   0  0  0  0  0  0  0  0  0  0  0  0
    5.7558   -1.9512   24.8567 C   0  0  0  0  0  0  0  0  0  0  0  0
    5.7380   -1.1709   23.5516 C   0  0  0  0  0  0  0  0  0  0  0  0
    6.7207   -3.1008   24.9215 C   0  0  0  0  0  0  0  0  0  0  0  0
    7.0066   -1.8369   25.6808 C   0  0  0  0  0  0  0  0  0  0  0  0
    5.3983   -1.7265   22.5069 O   0  0  0  0  0  0  0  0  0  0  0  0
    6.0874    0.1050   23.5388 N   0  0  0  0  0  0  0  0  0  0  0  0
    6.0701    0.8593   22.2772 C   0  0  0  0  0  0  0  0  0  0  0  0
    4.6587    1.3519   22.0006 C   0  0  0  0  0  0  0  0  0  0  0  0
    4.1403    1.3848   20.7090 C   0  0  0  0  0  0  0  0  0  0  0  0
    3.8813    1.7759   23.0735 C   0  0  0  0  0  0  0  0  0  0  0  0
    4.9282    0.9488   19.5720 C   0  0  0  0  0  0  0  0  0  0  0  0
    2.8461    1.8392   20.4773 C   0  0  0  0  0  0  0  0  0  0  0  0
    2.5861    2.2313   22.8472 C   0  0  0  0  0  0  0  0  0  0  0  0
    5.5336   -0.3033   19.5838 C   0  0  0  0  0  0  0  0  0  0  0  0
    5.0801    1.7827   18.4694 C   0  0  0  0  0  0  0  0  0  0  0  0
    2.0737    2.2616   21.5541 C   0  0  0  0  0  0  0  0  0  0  0  0
    1.8382    2.6370   23.8679 F   0  0  0  0  0  0  0  0  0  0  0  0
    6.2820   -0.6907   18.4775 C   0  0  0  0  0  0  0  0  0  0  0  0
    5.8405    1.3341   17.3950 C   0  0  0  0  0  0  0  0  0  0  0  0
    0.8346    2.6987   21.3488 F   0  0  0  0  0  0  0  0  0  0  0  0
    6.4181    0.1240   17.4209 N   0  0  0  0  0  0  0  0  0  0  0  0
    3.6083   -0.3412   24.9841 H   0  0  0  0  0  0  0  0  0  0  0  0
    2.9485   -4.2783   27.6555 H   0  0  0  0  0  0  0  0  0  0  0  0
    4.9933   -3.9701   26.4439 H   0  0  0  0  0  0  0  0  0  0  0  0
    7.2703   -3.3380   24.1205 H   0  0  0  0  0  0  0  0  0  0  0  0
    6.4725   -3.9348   25.4142 H   0  0  0  0  0  0  0  0  0  0  0  0
    6.9488   -1.8295   26.6791 H   0  0  0  0  0  0  0  0  0  0  0  0
    7.7466   -1.2327   25.3853 H   0  0  0  0  0  0  0  0  0  0  0  0
    6.3633    0.5564   24.3875 H   0  0  0  0  0  0  0  0  0  0  0  0
    6.3685    0.2656   21.5299 H   0  0  0  0  0  0  0  0  0  0  0  0
    6.6885    1.6420   22.3484 H   0  0  0  0  0  0  0  0  0  0  0  0
    4.2513    1.7534   24.0022 H   0  0  0  0  0  0  0  0  0  0  0  0
    2.4759    1.8618   19.5486 H   0  0  0  0  0  0  0  0  0  0  0  0
    5.4327   -0.9119   20.3709 H   0  0  0  0  0  0  0  0  0  0  0  0
    4.6513    2.6859   18.4494 H   0  0  0  0  0  0  0  0  0  0  0  0
    6.7241   -1.5877   18.4699 H   0  0  0  0  0  0  0  0  0  0  0  0
    5.9581    1.9206   16.5936 H   0  0  0  0  0  0  0  0  0  0  0  0
  1  2  1  0  0  0  0
  2  3  2  0  0  0  0
  2  4  1  0  0  0  0
  3  5  1  0  0  0  0
  3  6  1  0  0  0  0
  4  7  2  0  0  0  0
  6  8  2  0  0  0  0
  7  9  1  0  0  0  0
  9 10  1  0  0  0  0
  9 11  1  0  0  0  0
  9 12  1  0  0  0  0
 10 13  2  0  0  0  0
 10 14  1  0  0  0  0
 14 15  1  0  0  0  0
 15 16  1  0  0  0  0
 16 17  2  0  0  0  0
 16 18  1  0  0  0  0
 17 19  1  0  0  0  0
 17 20  1  0  0  0  0
 18 21  2  0  0  0  0
 19 22  2  0  0  0  0
 19 23  1  0  0  0  0
 20 24  2  0  0  0  0
 21 25  1  0  0  0  0
 22 26  1  0  0  0  0
 23 27  2  0  0  0  0
 24 28  1  0  0  0  0
 26 29  2  0  0  0  0
  7  8  1  0  0  0  0
 11 12  1  0  0  0  0
 21 24  1  0  0  0  0
 27 29  1  0  0  0  0
  4 30  1  0  0  0  0
  6 31  1  0  0  0  0
  8 32  1  0  0  0  0
 11 33  1  0  0  0  0
 11 34  1  0  0  0  0
 12 35  1  0  0  0  0
 12 36  1  0  0  0  0
 14 37  1  0  0  0  0
 15 38  1  0  0  0  0
 15 39  1  0  0  0  0
 18 40  1  0  0  0  0
 20 41  1  0  0  0  0
 22 42  1  0  0  0  0
 23 43  1  0  0  0  0
 26 44  1  0  0  0  0
 27 45  1  0  0  0  0
M  END
> <BIOSOLVEIT.HYDE_ESTIMATED_AFFINITY_LOWER_BOUNDARY [nM]>
56468.075058

> <BIOSOLVEIT.HYDE_ESTIMATED_AFFINITY_UPPER_BOUNDARY [nM]>
5610437.122727

> <BIOSOLVEIT.HYDE_LIGAND_EFFICIENCY range: ++, +, 0, -, -->
--

> <BIOSOLVEIT.HYDE_LIGAND_LIPOPHILIC_EFFICIENCY range: ++, +, 0, -, -->
--

> <BIOSOLVEIT.INTER_CLASH range: red, yellow, green>
green

> <BIOSOLVEIT.INTRA_CLASH range: red, yellow, green>
yellow

> <BIOSOLVEIT.LOGP>
5.6816

> <BIOSOLVEIT.MOLECULAR WEIGHT>
433.283

> <BIOSOLVEIT.MOLECULE_CHECKSUM>
LTE4LjU0ODc7MC42Mzk2MTI=

> <BIOSOLVEIT.TORSION_QUALITY range: red, yellow, green, not rotatable>
green

> <BIOSOLVEIT.TPSA>
41.99

> <BIOSOLVEIT.SEESAR_FAVORITE>
favorite

> <smc_score>
1.0

> <QED_score>
0.563

> <distance>
0.682

> <SimilarityPheSA_1>
0.721

> <Smiles>
O=C(NCc1cc(F)c(F)cc1-c1ccncc1)C1(c2ccc(Cl)c(Cl)c2)CC1

> <Similarity_SkelSpheres>
0.638

> <Cluster No>
298.0

> <QueryID>
MAT-POS-f7918075-5

> <SimilarityPheSA>
0.7205

> <Postera series>
3-aminopyridine-like

> <PDB_code>
Mpro-x11499

> <Approach>
DGM_exploratory_RL

> <ID>
20210628_681

> <SimilarityPheSA_2>
0.678

> <OPTIBRIUM.logD>
4.54681

> <OPTIBRIUM.BBB category>
+

> <OPTIBRIUM.logP>
4.54681

> <OPTIBRIUM.P-gp category>
no

> <OPTIBRIUM.logS>
-0.972023

> <OPTIBRIUM.HIA category>
+

> <OPTIBRIUM.PPB90 category>
high

> <OPTIBRIUM.2D6 affinity category>
medium

> <OPTIBRIUM.hERG pIC50>
4.96544

> <OPTIBRIUM.2C9 pKi>
6.11389

> <OPTIBRIUM.BBB log([brain]:[blood])>
-0.238017

> <OPTIBRIUM.logS @ pH7.4>
-0.972023

$$$$
Compound 1411_1_06
haSeeSAR  07122114383D 1   1.00000     0.00000     0
SeeSAR 11.0.2 hazemaj
 45 48  0  0  0  0            999 V2000
    0.9475   -0.0406   26.1134 Cl  0  0  0  0  0  0  0  0  0  0  0  0
    2.2220   -1.2790   26.2210 C   0  0  0  0  0  0  0  0  0  0  0  0
    2.0241   -2.4151   26.9984 C   0  0  0  0  0  0  0  0  0  0  0  0
    3.4099   -1.0993   25.5215 C   0  0  0  0  0  0  0  0  0  0  0  0
    0.4946   -2.6207   27.8849 Cl  0  0  0  0  0  0  0  0  0  0  0  0
    3.0129   -3.3899   27.0881 C   0  0  0  0  0  0  0  0  0  0  0  0
    4.3946   -2.0762   25.6152 C   0  0  0  0  0  0  0  0  0  0  0  0
    4.2037   -3.2146   26.3912 C   0  0  0  0  0  0  0  0  0  0  0  0
    5.6992   -1.8967   24.8570 C   0  0  0  0  0  0  0  0  0  0  0  0
    5.6913   -1.1240   23.5472 C   0  0  0  0  0  0  0  0  0  0  0  0
    6.6627   -3.0467   24.9353 C   0  0  0  0  0  0  0  0  0  0  0  0
    6.9443   -1.7787   25.6892 C   0  0  0  0  0  0  0  0  0  0  0  0
    5.3759   -1.6902   22.5005 O   0  0  0  0  0  0  0  0  0  0  0  0
    6.0234    0.1565   23.5325 N   0  0  0  0  0  0  0  0  0  0  0  0
    6.0158    0.9034   22.2664 C   0  0  0  0  0  0  0  0  0  0  0  0
    4.6063    1.3933   21.9755 C   0  0  0  0  0  0  0  0  0  0  0  0
    4.1004    1.4241   20.6789 C   0  0  0  0  0  0  0  0  0  0  0  0
    3.8177    1.8168   23.0404 C   0  0  0  0  0  0  0  0  0  0  0  0
    4.9003    0.9886   19.5500 C   0  0  0  0  0  0  0  0  0  0  0  0
    2.8078    1.8760   20.4341 C   0  0  0  0  0  0  0  0  0  0  0  0
    2.5240    2.2698   22.8010 C   0  0  0  0  0  0  0  0  0  0  0  0
    5.5098   -0.2615   19.5700 C   0  0  0  0  0  0  0  0  0  0  0  0
    5.0592    1.8207   18.4470 C   0  0  0  0  0  0  0  0  0  0  0  0
    2.0242    2.2981   21.5029 C   0  0  0  0  0  0  0  0  0  0  0  0
    1.7655    2.6750   23.8140 F   0  0  0  0  0  0  0  0  0  0  0  0
    6.2696   -0.6487   18.4715 C   0  0  0  0  0  0  0  0  0  0  0  0
    5.8311    1.3724   17.3806 C   0  0  0  0  0  0  0  0  0  0  0  0
    0.7864    2.7328   21.2851 F   0  0  0  0  0  0  0  0  0  0  0  0
    6.4126    0.1644   17.4144 N   0  0  0  0  0  0  0  0  0  0  0  0
    3.5533   -0.2831   24.9617 H   0  0  0  0  0  0  0  0  0  0  0  0
    2.8690   -4.2066   27.6470 H   0  0  0  0  0  0  0  0  0  0  0  0
    4.9228   -3.9071   26.4481 H   0  0  0  0  0  0  0  0  0  0  0  0
    7.2178   -3.2889   24.1395 H   0  0  0  0  0  0  0  0  0  0  0  0
    6.4103   -3.8776   25.4311 H   0  0  0  0  0  0  0  0  0  0  0  0
    6.8793   -1.7654   26.6870 H   0  0  0  0  0  0  0  0  0  0  0  0
    7.6868   -1.1767   25.3955 H   0  0  0  0  0  0  0  0  0  0  0  0
    6.2797    0.6164   24.3828 H   0  0  0  0  0  0  0  0  0  0  0  0
    6.3206    0.3056   21.5249 H   0  0  0  0  0  0  0  0  0  0  0  0
    6.6329    1.6870   22.3379 H   0  0  0  0  0  0  0  0  0  0  0  0
    4.1786    1.7959   23.9727 H   0  0  0  0  0  0  0  0  0  0  0  0
    2.4467    1.8971   19.5018 H   0  0  0  0  0  0  0  0  0  0  0  0
    5.4038   -0.8688   20.3574 H   0  0  0  0  0  0  0  0  0  0  0  0
    4.6277    2.7223   18.4214 H   0  0  0  0  0  0  0  0  0  0  0  0
    6.7148   -1.5441   18.4697 H   0  0  0  0  0  0  0  0  0  0  0  0
    5.9539    1.9577   16.5792 H   0  0  0  0  0  0  0  0  0  0  0  0
  1  2  1  0  0  0  0
  2  3  2  0  0  0  0
  2  4  1  0  0  0  0
  3  5  1  0  0  0  0
  3  6  1  0  0  0  0
  4  7  2  0  0  0  0
  6  8  2  0  0  0  0
  7  9  1  0  0  0  0
  9 10  1  0  0  0  0
  9 11  1  0  0  0  0
  9 12  1  0  0  0  0
 10 13  2  0  0  0  0
 10 14  1  0  0  0  0
 14 15  1  0  0  0  0
 15 16  1  0  0  0  0
 16 17  2  0  0  0  0
 16 18  1  0  0  0  0
 17 19  1  0  0  0  0
 17 20  1  0  0  0  0
 18 21  2  0  0  0  0
 19 22  2  0  0  0  0
 19 23  1  0  0  0  0
 20 24  2  0  0  0  0
 21 25  1  0  0  0  0
 22 26  1  0  0  0  0
 23 27  2  0  0  0  0
 24 28  1  0  0  0  0
 26 29  2  0  0  0  0
  7  8  1  0  0  0  0
 11 12  1  0  0  0  0
 21 24  1  0  0  0  0
 27 29  1  0  0  0  0
  4 30  1  0  0  0  0
  6 31  1  0  0  0  0
  8 32  1  0  0  0  0
 11 33  1  0  0  0  0
 11 34  1  0  0  0  0
 12 35  1  0  0  0  0
 12 36  1  0  0  0  0
 14 37  1  0  0  0  0
 15 38  1  0  0  0  0
 15 39  1  0  0  0  0
 18 40  1  0  0  0  0
 20 41  1  0  0  0  0
 22 42  1  0  0  0  0
 23 43  1  0  0  0  0
 26 44  1  0  0  0  0
 27 45  1  0  0  0  0
M  END
> <BIOSOLVEIT.HYDE_ESTIMATED_AFFINITY_LOWER_BOUNDARY [nM]>
57089.727356

> <BIOSOLVEIT.HYDE_ESTIMATED_AFFINITY_UPPER_BOUNDARY [nM]>
5672201.954016

> <BIOSOLVEIT.HYDE_LIGAND_EFFICIENCY range: ++, +, 0, -, -->
--

> <BIOSOLVEIT.HYDE_LIGAND_LIPOPHILIC_EFFICIENCY range: ++, +, 0, -, -->
--

> <BIOSOLVEIT.INTER_CLASH range: red, yellow, green>
green

> <BIOSOLVEIT.INTRA_CLASH range: red, yellow, green>
yellow

> <BIOSOLVEIT.LOGP>
5.6816

> <BIOSOLVEIT.MOLECULAR WEIGHT>
433.283

> <BIOSOLVEIT.MOLECULE_CHECKSUM>
LTE4LjUyMTY7MC42Mzg2NzY=

> <BIOSOLVEIT.TORSION_QUALITY range: red, yellow, green, not rotatable>
green

> <BIOSOLVEIT.TPSA>
41.99

> <BIOSOLVEIT.SEESAR_FAVORITE>
favorite

> <smc_score>
1.0

> <QED_score>
0.563

> <distance>
0.682

> <SimilarityPheSA_1>
0.721

> <Smiles>
O=C(NCc1cc(F)c(F)cc1-c1ccncc1)C1(c2ccc(Cl)c(Cl)c2)CC1

> <Similarity_SkelSpheres>
0.638

> <Cluster No>
298.0

> <QueryID>
MAT-POS-f7918075-5

> <SimilarityPheSA>
0.7205

> <Postera series>
3-aminopyridine-like

> <PDB_code>
Mpro-x11499

> <Approach>
DGM_exploratory_RL

> <ID>
20210628_681

> <SimilarityPheSA_2>
0.678

> <OPTIBRIUM.logD>
4.54681

> <OPTIBRIUM.BBB category>
+

> <OPTIBRIUM.logP>
4.54681

> <OPTIBRIUM.P-gp category>
no

> <OPTIBRIUM.logS>
-0.972023

> <OPTIBRIUM.HIA category>
+

> <OPTIBRIUM.PPB90 category>
high

> <OPTIBRIUM.2D6 affinity category>
medium

> <OPTIBRIUM.hERG pIC50>
4.96544

> <OPTIBRIUM.2C9 pKi>
6.11389

> <OPTIBRIUM.BBB log([brain]:[blood])>
-0.238017

> <OPTIBRIUM.logS @ pH7.4>
-0.972023

$$$$
Compound 1411_1_03
haSeeSAR  07122114383D 1   1.00000     0.00000     0
SeeSAR 11.0.2 hazemaj
 45 48  0  0  0  0            999 V2000
    0.9479   -0.0412   26.1136 Cl  0  0  0  0  0  0  0  0  0  0  0  0
    2.2225   -1.2796   26.2211 C   0  0  0  0  0  0  0  0  0  0  0  0
    2.0246   -2.4156   26.9985 C   0  0  0  0  0  0  0  0  0  0  0  0
    3.4103   -1.0998   25.5216 C   0  0  0  0  0  0  0  0  0  0  0  0
    0.4951   -2.6214   27.8851 Cl  0  0  0  0  0  0  0  0  0  0  0  0
    3.0133   -3.3904   27.0882 C   0  0  0  0  0  0  0  0  0  0  0  0
    4.3950   -2.0768   25.6154 C   0  0  0  0  0  0  0  0  0  0  0  0
    4.2041   -3.2150   26.3913 C   0  0  0  0  0  0  0  0  0  0  0  0
    5.6996   -1.8970   24.8571 C   0  0  0  0  0  0  0  0  0  0  0  0
    5.6916   -1.1244   23.5473 C   0  0  0  0  0  0  0  0  0  0  0  0
    6.6633   -3.0469   24.9354 C   0  0  0  0  0  0  0  0  0  0  0  0
    6.9446   -1.7789   25.6892 C   0  0  0  0  0  0  0  0  0  0  0  0
    5.3761   -1.6905   22.5006 O   0  0  0  0  0  0  0  0  0  0  0  0
    6.0236    0.1561   23.5325 N   0  0  0  0  0  0  0  0  0  0  0  0
    6.0159    0.9030   22.2664 C   0  0  0  0  0  0  0  0  0  0  0  0
    4.6066    1.3929   21.9757 C   0  0  0  0  0  0  0  0  0  0  0  0
    4.1006    1.4239   20.6790 C   0  0  0  0  0  0  0  0  0  0  0  0
    3.8180    1.8164   23.0406 C   0  0  0  0  0  0  0  0  0  0  0  0
    4.9004    0.9885   19.5501 C   0  0  0  0  0  0  0  0  0  0  0  0
    2.8080    1.8758   20.4344 C   0  0  0  0  0  0  0  0  0  0  0  0
    2.5243    2.2695   22.8014 C   0  0  0  0  0  0  0  0  0  0  0  0
    5.5099   -0.2616   19.5700 C   0  0  0  0  0  0  0  0  0  0  0  0
    5.0593    1.8206   18.4472 C   0  0  0  0  0  0  0  0  0  0  0  0
    2.0244    2.2979   21.5032 C   0  0  0  0  0  0  0  0  0  0  0  0
    1.7658    2.6747   23.8143 F   0  0  0  0  0  0  0  0  0  0  0  0
    6.2696   -0.6487   18.4713 C   0  0  0  0  0  0  0  0  0  0  0  0
    5.8311    1.3725   17.3806 C   0  0  0  0  0  0  0  0  0  0  0  0
    0.7866    2.7327   21.2855 F   0  0  0  0  0  0  0  0  0  0  0  0
    6.4125    0.1644   17.4143 N   0  0  0  0  0  0  0  0  0  0  0  0
    3.5536   -0.2836   24.9619 H   0  0  0  0  0  0  0  0  0  0  0  0
    2.8696   -4.2071   27.6471 H   0  0  0  0  0  0  0  0  0  0  0  0
    4.9233   -3.9076   26.4482 H   0  0  0  0  0  0  0  0  0  0  0  0
    7.2184   -3.2892   24.1397 H   0  0  0  0  0  0  0  0  0  0  0  0
    6.4109   -3.8778   25.4312 H   0  0  0  0  0  0  0  0  0  0  0  0
    6.8797   -1.7656   26.6870 H   0  0  0  0  0  0  0  0  0  0  0  0
    7.6871   -1.1768   25.3955 H   0  0  0  0  0  0  0  0  0  0  0  0
    6.2799    0.6160   24.3827 H   0  0  0  0  0  0  0  0  0  0  0  0
    6.3207    0.3052   21.5249 H   0  0  0  0  0  0  0  0  0  0  0  0
    6.6332    1.6865   22.3378 H   0  0  0  0  0  0  0  0  0  0  0  0
    4.1789    1.7953   23.9729 H   0  0  0  0  0  0  0  0  0  0  0  0
    2.4468    1.8971   19.5022 H   0  0  0  0  0  0  0  0  0  0  0  0
    5.4040   -0.8690   20.3574 H   0  0  0  0  0  0  0  0  0  0  0  0
    4.6277    2.7224   18.4216 H   0  0  0  0  0  0  0  0  0  0  0  0
    6.7149   -1.5441   18.4695 H   0  0  0  0  0  0  0  0  0  0  0  0
    5.9538    1.9578   16.5792 H   0  0  0  0  0  0  0  0  0  0  0  0
  1  2  1  0  0  0  0
  2  3  2  0  0  0  0
  2  4  1  0  0  0  0
  3  5  1  0  0  0  0
  3  6  1  0  0  0  0
  4  7  2  0  0  0  0
  6  8  2  0  0  0  0
  7  9  1  0  0  0  0
  9 10  1  0  0  0  0
  9 11  1  0  0  0  0
  9 12  1  0  0  0  0
 10 13  2  0  0  0  0
 10 14  1  0  0  0  0
 14 15  1  0  0  0  0
 15 16  1  0  0  0  0
 16 17  2  0  0  0  0
 16 18  1  0  0  0  0
 17 19  1  0  0  0  0
 17 20  1  0  0  0  0
 18 21  2  0  0  0  0
 19 22  2  0  0  0  0
 19 23  1  0  0  0  0
 20 24  2  0  0  0  0
 21 25  1  0  0  0  0
 22 26  1  0  0  0  0
 23 27  2  0  0  0  0
 24 28  1  0  0  0  0
 26 29  2  0  0  0  0
  7  8  1  0  0  0  0
 11 12  1  0  0  0  0
 21 24  1  0  0  0  0
 27 29  1  0  0  0  0
  4 30  1  0  0  0  0
  6 31  1  0  0  0  0
  8 32  1  0  0  0  0
 11 33  1  0  0  0  0
 11 34  1  0  0  0  0
 12 35  1  0  0  0  0
 12 36  1  0  0  0  0
 14 37  1  0  0  0  0
 15 38  1  0  0  0  0
 15 39  1  0  0  0  0
 18 40  1  0  0  0  0
 20 41  1  0  0  0  0
 22 42  1  0  0  0  0
 23 43  1  0  0  0  0
 26 44  1  0  0  0  0
 27 45  1  0  0  0  0
M  END
> <BIOSOLVEIT.HYDE_ESTIMATED_AFFINITY_LOWER_BOUNDARY [nM]>
57110.758438

> <BIOSOLVEIT.HYDE_ESTIMATED_AFFINITY_UPPER_BOUNDARY [nM]>
5674291.516330

> <BIOSOLVEIT.HYDE_LIGAND_EFFICIENCY range: ++, +, 0, -, -->
--

> <BIOSOLVEIT.HYDE_LIGAND_LIPOPHILIC_EFFICIENCY range: ++, +, 0, -, -->
--

> <BIOSOLVEIT.INTER_CLASH range: red, yellow, green>
green

> <BIOSOLVEIT.INTRA_CLASH range: red, yellow, green>
yellow

> <BIOSOLVEIT.LOGP>
5.6816

> <BIOSOLVEIT.MOLECULAR WEIGHT>
433.283

> <BIOSOLVEIT.MOLECULE_CHECKSUM>
LTE4LjUyMDc7MC42Mzg2NDU=

> <BIOSOLVEIT.TORSION_QUALITY range: red, yellow, green, not rotatable>
green

> <BIOSOLVEIT.TPSA>
41.99

> <BIOSOLVEIT.SEESAR_FAVORITE>
favorite

> <smc_score>
1.0

> <QED_score>
0.563

> <distance>
0.682

> <SimilarityPheSA_1>
0.721

> <Smiles>
O=C(NCc1cc(F)c(F)cc1-c1ccncc1)C1(c2ccc(Cl)c(Cl)c2)CC1

> <Similarity_SkelSpheres>
0.638

> <Cluster No>
298.0

> <QueryID>
MAT-POS-f7918075-5

> <SimilarityPheSA>
0.7205

> <Postera series>
3-aminopyridine-like

> <PDB_code>
Mpro-x11499

> <Approach>
DGM_exploratory_RL

> <ID>
20210628_681

> <SimilarityPheSA_2>
0.678

> <OPTIBRIUM.logD>
4.54681

> <OPTIBRIUM.BBB category>
+

> <OPTIBRIUM.logP>
4.54681

> <OPTIBRIUM.P-gp category>
no

> <OPTIBRIUM.logS>
-0.972023

> <OPTIBRIUM.HIA category>
+

> <OPTIBRIUM.PPB90 category>
high

> <OPTIBRIUM.2D6 affinity category>
medium

> <OPTIBRIUM.hERG pIC50>
4.96544

> <OPTIBRIUM.2C9 pKi>
6.11389

> <OPTIBRIUM.BBB log([brain]:[blood])>
-0.238017

> <OPTIBRIUM.logS @ pH7.4>
-0.972023

$$$$
Compound 1411_1_01
haSeeSAR  07122114383D 1   1.00000     0.00000     0
SeeSAR 11.0.2 hazemaj
 45 48  0  0  0  0            999 V2000
    0.9464   -0.0392   26.1137 Cl  0  0  0  0  0  0  0  0  0  0  0  0
    2.2207   -1.2780   26.2209 C   0  0  0  0  0  0  0  0  0  0  0  0
    2.0223   -2.4145   26.9974 C   0  0  0  0  0  0  0  0  0  0  0  0
    3.4088   -1.0980   25.5218 C   0  0  0  0  0  0  0  0  0  0  0  0
    0.4925   -2.6204   27.8835 Cl  0  0  0  0  0  0  0  0  0  0  0  0
    3.0108   -3.3896   27.0869 C   0  0  0  0  0  0  0  0  0  0  0  0
    4.3932   -2.0753   25.6152 C   0  0  0  0  0  0  0  0  0  0  0  0
    4.2018   -3.2140   26.3904 C   0  0  0  0  0  0  0  0  0  0  0  0
    5.6980   -1.8955   24.8573 C   0  0  0  0  0  0  0  0  0  0  0  0
    5.6904   -1.1232   23.5473 C   0  0  0  0  0  0  0  0  0  0  0  0
    6.6620   -3.0450   24.9364 C   0  0  0  0  0  0  0  0  0  0  0  0
    6.9427   -1.7768   25.6901 C   0  0  0  0  0  0  0  0  0  0  0  0
    5.3757   -1.6896   22.5007 O   0  0  0  0  0  0  0  0  0  0  0  0
    6.0220    0.1574   23.5325 N   0  0  0  0  0  0  0  0  0  0  0  0
    6.0147    0.9040   22.2663 C   0  0  0  0  0  0  0  0  0  0  0  0
    4.6053    1.3940   21.9750 C   0  0  0  0  0  0  0  0  0  0  0  0
    4.0998    1.4247   20.6782 C   0  0  0  0  0  0  0  0  0  0  0  0
    3.8164    1.8176   23.0396 C   0  0  0  0  0  0  0  0  0  0  0  0
    4.8998    0.9890   19.5496 C   0  0  0  0  0  0  0  0  0  0  0  0
    2.8072    1.8767   20.4331 C   0  0  0  0  0  0  0  0  0  0  0  0
    2.5228    2.2706   22.7999 C   0  0  0  0  0  0  0  0  0  0  0  0
    5.5094   -0.2610   19.5698 C   0  0  0  0  0  0  0  0  0  0  0  0
    5.0591    1.8210   18.4466 C   0  0  0  0  0  0  0  0  0  0  0  0
    2.0234    2.2988   21.5017 C   0  0  0  0  0  0  0  0  0  0  0  0
    1.7640    2.6760   23.8126 F   0  0  0  0  0  0  0  0  0  0  0  0
    6.2695   -0.6483   18.4715 C   0  0  0  0  0  0  0  0  0  0  0  0
    5.8311    1.3727   17.3803 C   0  0  0  0  0  0  0  0  0  0  0  0
    0.7856    2.7336   21.2835 F   0  0  0  0  0  0  0  0  0  0  0  0
    6.4127    0.1645   17.4144 N   0  0  0  0  0  0  0  0  0  0  0  0
    3.5525   -0.2815   24.9626 H   0  0  0  0  0  0  0  0  0  0  0  0
    2.8667   -4.2066   27.6451 H   0  0  0  0  0  0  0  0  0  0  0  0
    4.9207   -3.9068   26.4470 H   0  0  0  0  0  0  0  0  0  0  0  0
    7.2175   -3.2874   24.1410 H   0  0  0  0  0  0  0  0  0  0  0  0
    6.4096   -3.8760   25.4323 H   0  0  0  0  0  0  0  0  0  0  0  0
    6.8773   -1.7633   26.6878 H   0  0  0  0  0  0  0  0  0  0  0  0
    7.6852   -1.1746   25.3965 H   0  0  0  0  0  0  0  0  0  0  0  0
    6.2777    0.6176   24.3828 H   0  0  0  0  0  0  0  0  0  0  0  0
    6.3196    0.3060   21.5249 H   0  0  0  0  0  0  0  0  0  0  0  0
    6.6319    1.6876   22.3377 H   0  0  0  0  0  0  0  0  0  0  0  0
    4.1771    1.7966   23.9720 H   0  0  0  0  0  0  0  0  0  0  0  0
    2.4463    1.8977   19.5007 H   0  0  0  0  0  0  0  0  0  0  0  0
    5.4033   -0.8683   20.3573 H   0  0  0  0  0  0  0  0  0  0  0  0
    4.6275    2.7227   18.4206 H   0  0  0  0  0  0  0  0  0  0  0  0
    6.7147   -1.5437   18.4699 H   0  0  0  0  0  0  0  0  0  0  0  0
    5.9542    1.9578   16.5789 H   0  0  0  0  0  0  0  0  0  0  0  0
  1  2  1  0  0  0  0
  2  3  2  0  0  0  0
  2  4  1  0  0  0  0
  3  5  1  0  0  0  0
  3  6  1  0  0  0  0
  4  7  2  0  0  0  0
  6  8  2  0  0  0  0
  7  9  1  0  0  0  0
  9 10  1  0  0  0  0
  9 11  1  0  0  0  0
  9 12  1  0  0  0  0
 10 13  2  0  0  0  0
 10 14  1  0  0  0  0
 14 15  1  0  0  0  0
 15 16  1  0  0  0  0
 16 17  2  0  0  0  0
 16 18  1  0  0  0  0
 17 19  1  0  0  0  0
 17 20  1  0  0  0  0
 18 21  2  0  0  0  0
 19 22  2  0  0  0  0
 19 23  1  0  0  0  0
 20 24  2  0  0  0  0
 21 25  1  0  0  0  0
 22 26  1  0  0  0  0
 23 27  2  0  0  0  0
 24 28  1  0  0  0  0
 26 29  2  0  0  0  0
  7  8  1  0  0  0  0
 11 12  1  0  0  0  0
 21 24  1  0  0  0  0
 27 29  1  0  0  0  0
  4 30  1  0  0  0  0
  6 31  1  0  0  0  0
  8 32  1  0  0  0  0
 11 33  1  0  0  0  0
 11 34  1  0  0  0  0
 12 35  1  0  0  0  0
 12 36  1  0  0  0  0
 14 37  1  0  0  0  0
 15 38  1  0  0  0  0
 15 39  1  0  0  0  0
 18 40  1  0  0  0  0
 20 41  1  0  0  0  0
 22 42  1  0  0  0  0
 23 43  1  0  0  0  0
 26 44  1  0  0  0  0
 27 45  1  0  0  0  0
M  END
> <BIOSOLVEIT.HYDE_ESTIMATED_AFFINITY_LOWER_BOUNDARY [nM]>
57198.221744

> <BIOSOLVEIT.HYDE_ESTIMATED_AFFINITY_UPPER_BOUNDARY [nM]>
5682981.512938

> <BIOSOLVEIT.HYDE_LIGAND_EFFICIENCY range: ++, +, 0, -, -->
--

> <BIOSOLVEIT.HYDE_LIGAND_LIPOPHILIC_EFFICIENCY range: ++, +, 0, -, -->
--

> <BIOSOLVEIT.INTER_CLASH range: red, yellow, green>
green

> <BIOSOLVEIT.INTRA_CLASH range: red, yellow, green>
yellow

> <BIOSOLVEIT.LOGP>
5.6816

> <BIOSOLVEIT.MOLECULAR WEIGHT>
433.283

> <BIOSOLVEIT.MOLECULE_CHECKSUM>
LTE4LjUxNjk7MC42Mzg1MTQ=

> <BIOSOLVEIT.TORSION_QUALITY range: red, yellow, green, not rotatable>
green

> <BIOSOLVEIT.TPSA>
41.99

> <BIOSOLVEIT.SEESAR_FAVORITE>
favorite

> <smc_score>
1.0

> <QED_score>
0.563

> <distance>
0.682

> <SimilarityPheSA_1>
0.721

> <Smiles>
O=C(NCc1cc(F)c(F)cc1-c1ccncc1)C1(c2ccc(Cl)c(Cl)c2)CC1

> <Similarity_SkelSpheres>
0.638

> <Cluster No>
298.0

> <QueryID>
MAT-POS-f7918075-5

> <SimilarityPheSA>
0.7205

> <Postera series>
3-aminopyridine-like

> <PDB_code>
Mpro-x11499

> <Approach>
DGM_exploratory_RL

> <ID>
20210628_681

> <SimilarityPheSA_2>
0.678

> <OPTIBRIUM.logD>
4.54681

> <OPTIBRIUM.BBB category>
+

> <OPTIBRIUM.logP>
4.54681

> <OPTIBRIUM.P-gp category>
no

> <OPTIBRIUM.logS>
-0.972023

> <OPTIBRIUM.HIA category>
+

> <OPTIBRIUM.PPB90 category>
high

> <OPTIBRIUM.2D6 affinity category>
medium

> <OPTIBRIUM.hERG pIC50>
4.96544

> <OPTIBRIUM.2C9 pKi>
6.11389

> <OPTIBRIUM.BBB log([brain]:[blood])>
-0.238017

> <OPTIBRIUM.logS @ pH7.4>
-0.972023

$$$$
Compound 1411_1_05
haSeeSAR  07122114383D 1   1.00000     0.00000     0
SeeSAR 11.0.2 hazemaj
 45 48  0  0  0  0            999 V2000
    2.6425   -4.8145   27.9923 Cl  0  0  0  0  0  0  0  0  0  0  0  0
    2.9505   -3.3372   27.0475 C   0  0  0  0  0  0  0  0  0  0  0  0
    1.9980   -2.3245   27.0099 C   0  0  0  0  0  0  0  0  0  0  0  0
    4.1479   -3.2077   26.3534 C   0  0  0  0  0  0  0  0  0  0  0  0
    0.4726   -2.5156   27.9068 Cl  0  0  0  0  0  0  0  0  0  0  0  0
    2.2292   -1.1652   26.2762 C   0  0  0  0  0  0  0  0  0  0  0  0
    4.3734   -2.0473   25.6214 C   0  0  0  0  0  0  0  0  0  0  0  0
    3.4251   -1.0308   25.5787 C   0  0  0  0  0  0  0  0  0  0  0  0
    5.6769   -1.8884   24.8568 C   0  0  0  0  0  0  0  0  0  0  0  0
    5.6748   -1.1167   23.5464 C   0  0  0  0  0  0  0  0  0  0  0  0
    6.6232   -3.0528   24.9316 C   0  0  0  0  0  0  0  0  0  0  0  0
    6.9276   -1.7887   25.6831 C   0  0  0  0  0  0  0  0  0  0  0  0
    5.3663   -1.6842   22.4984 O   0  0  0  0  0  0  0  0  0  0  0  0
    6.0042    0.1646   23.5327 N   0  0  0  0  0  0  0  0  0  0  0  0
    6.0020    0.9105   22.2661 C   0  0  0  0  0  0  0  0  0  0  0  0
    4.5941    1.4018   21.9697 C   0  0  0  0  0  0  0  0  0  0  0  0
    4.0926    1.4313   20.6713 C   0  0  0  0  0  0  0  0  0  0  0  0
    3.8025    1.8279   23.0313 C   0  0  0  0  0  0  0  0  0  0  0  0
    4.8957    0.9931   19.5458 C   0  0  0  0  0  0  0  0  0  0  0  0
    2.8014    1.8845   20.4216 C   0  0  0  0  0  0  0  0  0  0  0  0
    2.5102    2.2822   22.7870 C   0  0  0  0  0  0  0  0  0  0  0  0
    5.5044   -0.2572   19.5702 C   0  0  0  0  0  0  0  0  0  0  0  0
    5.0584    1.8230   18.4416 C   0  0  0  0  0  0  0  0  0  0  0  0
    2.0147    2.3092   21.4871 C   0  0  0  0  0  0  0  0  0  0  0  0
    1.7488    2.6898   23.7968 F   0  0  0  0  0  0  0  0  0  0  0  0
    6.2674   -0.6469   18.4747 C   0  0  0  0  0  0  0  0  0  0  0  0
    5.8333    1.3722   17.3784 C   0  0  0  0  0  0  0  0  0  0  0  0
    0.7782    2.7452   21.2645 F   0  0  0  0  0  0  0  0  0  0  0  0
    6.4140    0.1640   17.4164 N   0  0  0  0  0  0  0  0  0  0  0  0
    4.8338   -3.9349   26.3800 H   0  0  0  0  0  0  0  0  0  0  0  0
    1.5438   -0.4374   26.2504 H   0  0  0  0  0  0  0  0  0  0  0  0
    3.6031   -0.2032   25.0466 H   0  0  0  0  0  0  0  0  0  0  0  0
    7.1706   -3.3042   24.1334 H   0  0  0  0  0  0  0  0  0  0  0  0
    6.3604   -3.8794   25.4293 H   0  0  0  0  0  0  0  0  0  0  0  0
    6.8675   -1.7736   26.6812 H   0  0  0  0  0  0  0  0  0  0  0  0
    7.6779   -1.1984   25.3853 H   0  0  0  0  0  0  0  0  0  0  0  0
    6.2547    0.6256   24.3840 H   0  0  0  0  0  0  0  0  0  0  0  0
    6.3088    0.3119   21.5261 H   0  0  0  0  0  0  0  0  0  0  0  0
    6.6197    1.6935   22.3393 H   0  0  0  0  0  0  0  0  0  0  0  0
    4.1602    1.8078   23.9648 H   0  0  0  0  0  0  0  0  0  0  0  0
    2.4434    1.9048   19.4881 H   0  0  0  0  0  0  0  0  0  0  0  0
    5.3958   -0.8628   20.3583 H   0  0  0  0  0  0  0  0  0  0  0  0
    4.6274    2.7248   18.4128 H   0  0  0  0  0  0  0  0  0  0  0  0
    6.7121   -1.5426   18.4760 H   0  0  0  0  0  0  0  0  0  0  0  0
    5.9588    1.9559   16.5762 H   0  0  0  0  0  0  0  0  0  0  0  0
  1  2  1  0  0  0  0
  2  3  2  0  0  0  0
  2  4  1  0  0  0  0
  3  5  1  0  0  0  0
  3  6  1  0  0  0  0
  4  7  2  0  0  0  0
  6  8  2  0  0  0  0
  7  9  1  0  0  0  0
  9 10  1  0  0  0  0
  9 11  1  0  0  0  0
  9 12  1  0  0  0  0
 10 13  2  0  0  0  0
 10 14  1  0  0  0  0
 14 15  1  0  0  0  0
 15 16  1  0  0  0  0
 16 17  2  0  0  0  0
 16 18  1  0  0  0  0
 17 19  1  0  0  0  0
 17 20  1  0  0  0  0
 18 21  2  0  0  0  0
 19 22  2  0  0  0  0
 19 23  1  0  0  0  0
 20 24  2  0  0  0  0
 21 25  1  0  0  0  0
 22 26  1  0  0  0  0
 23 27  2  0  0  0  0
 24 28  1  0  0  0  0
 26 29  2  0  0  0  0
  7  8  1  0  0  0  0
 11 12  1  0  0  0  0
 21 24  1  0  0  0  0
 27 29  1  0  0  0  0
  4 30  1  0  0  0  0
  6 31  1  0  0  0  0
  8 32  1  0  0  0  0
 11 33  1  0  0  0  0
 11 34  1  0  0  0  0
 12 35  1  0  0  0  0
 12 36  1  0  0  0  0
 14 37  1  0  0  0  0
 15 38  1  0  0  0  0
 15 39  1  0  0  0  0
 18 40  1  0  0  0  0
 20 41  1  0  0  0  0
 22 42  1  0  0  0  0
 23 43  1  0  0  0  0
 26 44  1  0  0  0  0
 27 45  1  0  0  0  0
M  END
> <BIOSOLVEIT.HYDE_ESTIMATED_AFFINITY_LOWER_BOUNDARY [nM]>
63559.678184

> <BIOSOLVEIT.HYDE_ESTIMATED_AFFINITY_UPPER_BOUNDARY [nM]>
6315029.822101

> <BIOSOLVEIT.HYDE_LIGAND_EFFICIENCY range: ++, +, 0, -, -->
--

> <BIOSOLVEIT.HYDE_LIGAND_LIPOPHILIC_EFFICIENCY range: ++, +, 0, -, -->
--

> <BIOSOLVEIT.INTER_CLASH range: red, yellow, green>
green

> <BIOSOLVEIT.INTRA_CLASH range: red, yellow, green>
yellow

> <BIOSOLVEIT.LOGP>
5.6816

> <BIOSOLVEIT.MOLECULAR WEIGHT>
433.283

> <BIOSOLVEIT.MOLECULE_CHECKSUM>
LTE4LjI1NTU7MC42Mjk0OTk=

> <BIOSOLVEIT.TORSION_QUALITY range: red, yellow, green, not rotatable>
green

> <BIOSOLVEIT.TPSA>
41.99

> <BIOSOLVEIT.SEESAR_FAVORITE>
favorite

> <smc_score>
1.0

> <QED_score>
0.563

> <distance>
0.682

> <SimilarityPheSA_1>
0.721

> <Smiles>
O=C(NCc1cc(F)c(F)cc1-c1ccncc1)C1(c2ccc(Cl)c(Cl)c2)CC1

> <Similarity_SkelSpheres>
0.638

> <Cluster No>
298.0

> <QueryID>
MAT-POS-f7918075-5

> <SimilarityPheSA>
0.7205

> <Postera series>
3-aminopyridine-like

> <PDB_code>
Mpro-x11499

> <Approach>
DGM_exploratory_RL

> <ID>
20210628_681

> <SimilarityPheSA_2>
0.678

> <OPTIBRIUM.logD>
4.54681

> <OPTIBRIUM.BBB category>
+

> <OPTIBRIUM.logP>
4.54681

> <OPTIBRIUM.P-gp category>
no

> <OPTIBRIUM.logS>
-0.972023

> <OPTIBRIUM.HIA category>
+

> <OPTIBRIUM.PPB90 category>
high

> <OPTIBRIUM.2D6 affinity category>
medium

> <OPTIBRIUM.hERG pIC50>
4.96544

> <OPTIBRIUM.2C9 pKi>
6.11389

> <OPTIBRIUM.BBB log([brain]:[blood])>
-0.238017

> <OPTIBRIUM.logS @ pH7.4>
-0.972023

$$$$
Compound 1466_1_07
haSeeSAR  07122114383D 1   1.00000     0.00000     0
SeeSAR 11.0.2 hazemaj
 37 39  0  0  0  0            999 V2000
    2.7071    2.8379   19.0962 Cl  0  0  0  0  0  0  0  0  0  0  0  0
    3.3582    1.8550   20.4300 C   0  0  0  0  0  0  0  0  0  0  0  0
    4.4866    1.0592   20.2563 C   0  0  0  0  0  0  0  0  0  0  0  0
    2.7207    1.8890   21.6661 C   0  0  0  0  0  0  0  0  0  0  0  0
    4.9733    0.3007   21.3173 C   0  0  0  0  0  0  0  0  0  0  0  0
    5.1370    1.0376   18.9600 C   0  0  0  0  0  0  0  0  0  0  0  0
    1.2768    2.9051   21.8955 Cl  0  0  0  0  0  0  0  0  0  0  0  0
    3.1976    1.1355   22.7335 C   0  0  0  0  0  0  0  0  0  0  0  0
    4.3262    0.3440   22.5475 C   0  0  0  0  0  0  0  0  0  0  0  0
    6.2025   -0.5817   21.1695 C   0  0  0  0  0  0  0  0  0  0  0  0
    5.2270    2.0501   18.1302 O   0  0  0  0  0  0  0  0  0  0  0  0
    5.7571   -0.0395   18.4037 C   0  0  0  0  0  0  0  0  0  0  0  0
    6.8988   -0.6722   22.4611 N   0  0  0  0  0  0  0  0  0  0  0  0
    5.8814    1.6502   17.0590 C   0  0  0  0  0  0  0  0  0  0  0  0
    6.2195    0.3849   17.1946 N   0  0  0  0  0  0  0  0  0  0  0  0
    6.7366   -1.7389   23.2267 C   0  0  0  0  0  0  0  0  0  0  0  0
    6.0026   -2.6556   22.8575 O   0  0  0  0  0  0  0  0  0  0  0  0
    7.4566   -1.8325   24.5621 C   0  0  0  0  0  0  0  0  0  0  0  0
    8.8825   -1.3604   24.3996 C   0  0  0  0  0  0  0  0  0  0  0  0
    9.7667   -1.8008   23.4489 N   0  0  0  0  0  0  0  0  0  0  0  0
    9.3630   -0.4157   25.2585 C   0  0  0  0  0  0  0  0  0  0  0  0
   10.9653   -1.2659   23.4637 C   0  0  0  0  0  0  0  0  0  0  0  0
   10.9662   -0.1578   24.7585 S   0  0  0  0  0  0  0  0  0  0  0  0
   12.1590   -1.5385   22.5597 C   0  0  0  0  0  0  0  0  0  0  0  0
    2.7365    1.1624   23.6204 H   0  0  0  0  0  0  0  0  0  0  0  0
    4.6770   -0.2014   23.3087 H   0  0  0  0  0  0  0  0  0  0  0  0
    6.8167   -0.1861   20.4867 H   0  0  0  0  0  0  0  0  0  0  0  0
    5.9232   -1.4961   20.8767 H   0  0  0  0  0  0  0  0  0  0  0  0
    5.8532   -0.9525   18.8004 H   0  0  0  0  0  0  0  0  0  0  0  0
    7.4950    0.0725   22.7609 H   0  0  0  0  0  0  0  0  0  0  0  0
    6.0895    2.2203   16.2643 H   0  0  0  0  0  0  0  0  0  0  0  0
    7.4534   -2.7816   24.8767 H   0  0  0  0  0  0  0  0  0  0  0  0
    6.9895   -1.2572   25.2336 H   0  0  0  0  0  0  0  0  0  0  0  0
    8.8796    0.0264   26.0139 H   0  0  0  0  0  0  0  0  0  0  0  0
   12.9265   -0.9608   22.8376 H   0  0  0  0  0  0  0  0  0  0  0  0
   12.4216   -2.5005   22.6353 H   0  0  0  0  0  0  0  0  0  0  0  0
   11.9134   -1.3335   21.6123 H   0  0  0  0  0  0  0  0  0  0  0  0
  1  2  1  0  0  0  0
  2  3  2  0  0  0  0
  2  4  1  0  0  0  0
  3  5  1  0  0  0  0
  3  6  1  0  0  0  0
  4  7  1  0  0  0  0
  4  8  2  0  0  0  0
  5  9  2  0  0  0  0
  5 10  1  0  0  0  0
  6 11  1  0  0  0  0
  6 12  2  0  0  0  0
 10 13  1  0  0  0  0
 11 14  1  0  0  0  0
 12 15  1  0  0  0  0
 13 16  1  0  0  0  0
 16 17  2  0  0  0  0
 16 18  1  0  0  0  0
 18 19  1  0  0  0  0
 19 20  1  0  0  0  0
 19 21  2  0  0  0  0
 20 22  2  0  0  0  0
 21 23  1  0  0  0  0
 22 24  1  0  0  0  0
  8  9  1  0  0  0  0
 14 15  2  0  0  0  0
 22 23  1  0  0  0  0
  8 25  1  0  0  0  0
  9 26  1  0  0  0  0
 10 27  1  0  0  0  0
 10 28  1  0  0  0  0
 12 29  1  0  0  0  0
 13 30  1  0  0  0  0
 14 31  1  0  0  0  0
 18 32  1  0  0  0  0
 18 33  1  0  0  0  0
 21 34  1  0  0  0  0
 24 35  1  0  0  0  0
 24 36  1  0  0  0  0
 24 37  1  0  0  0  0
M  END
> <BIOSOLVEIT.HYDE_ESTIMATED_AFFINITY_LOWER_BOUNDARY [nM]>
105038.480419

> <BIOSOLVEIT.HYDE_ESTIMATED_AFFINITY_UPPER_BOUNDARY [nM]>
10436194.066237

> <BIOSOLVEIT.HYDE_LIGAND_EFFICIENCY range: ++, +, 0, -, -->
--

> <BIOSOLVEIT.HYDE_LIGAND_LIPOPHILIC_EFFICIENCY range: ++, +, 0, -, -->
--

> <BIOSOLVEIT.INTER_CLASH range: red, yellow, green>
green

> <BIOSOLVEIT.INTRA_CLASH range: red, yellow, green>
red

> <BIOSOLVEIT.LOGP>
4.27222

> <BIOSOLVEIT.MOLECULAR WEIGHT>
382.269

> <BIOSOLVEIT.MOLECULE_CHECKSUM>
LTE3LjAxMDI7MC43MDg3NTc=

> <BIOSOLVEIT.TORSION_QUALITY range: red, yellow, green, not rotatable>
yellow

> <BIOSOLVEIT.TPSA>
68.02

> <BIOSOLVEIT.SEESAR_FAVORITE>
favorite

> <smc_score>
0.688

> <QED_score>
0.716

> <distance>
0.722

> <SimilarityPheSA_1>
0.698

> <Smiles>
Cc1nc(CC(=O)NCc2ccc(Cl)c(Cl)c2-c2cnco2)cs1

> <Similarity_SkelSpheres>
0.558

> <Cluster No>
325.0

> <QueryID>
PET-UNK-3c72d439-1

> <SimilarityPheSA>
0.6975

> <Postera series>
3-aminopyridine-like

> <PDB_code>
Mpro-x11810

> <Approach>
DGM_exploratory_RL

> <ID>
20210628_736

> <SimilarityPheSA_2>
0.641

> <OPTIBRIUM.logD>
3.9689

> <OPTIBRIUM.BBB category>
-

> <OPTIBRIUM.logP>
3.9689

> <OPTIBRIUM.P-gp category>
no

> <OPTIBRIUM.logS>
0.956208

> <OPTIBRIUM.HIA category>
+

> <OPTIBRIUM.PPB90 category>
high

> <OPTIBRIUM.2D6 affinity category>
medium

> <OPTIBRIUM.hERG pIC50>
4.35718

> <OPTIBRIUM.2C9 pKi>
5.56068

> <OPTIBRIUM.BBB log([brain]:[blood])>
-0.793273

> <OPTIBRIUM.logS @ pH7.4>
0.956208

$$$$
Compound 1466_1_10
haSeeSAR  07122114383D 1   1.00000     0.00000     0
SeeSAR 11.0.2 hazemaj
 37 39  0  0  0  0            999 V2000
    2.6941    2.8463   19.0696 Cl  0  0  0  0  0  0  0  0  0  0  0  0
    3.3403    1.8737   20.4134 C   0  0  0  0  0  0  0  0  0  0  0  0
    4.4711    1.0791   20.2510 C   0  0  0  0  0  0  0  0  0  0  0  0
    2.6964    1.9148   21.6459 C   0  0  0  0  0  0  0  0  0  0  0  0
    4.9539    0.3287   21.3194 C   0  0  0  0  0  0  0  0  0  0  0  0
    5.1284    1.0499   18.9581 C   0  0  0  0  0  0  0  0  0  0  0  0
    1.2493    2.9295   21.8609 Cl  0  0  0  0  0  0  0  0  0  0  0  0
    3.1694    1.1695   22.7208 C   0  0  0  0  0  0  0  0  0  0  0  0
    4.3004    0.3789   22.5460 C   0  0  0  0  0  0  0  0  0  0  0  0
    6.1856   -0.5522   21.1840 C   0  0  0  0  0  0  0  0  0  0  0  0
    5.2244    2.0583   18.1238 O   0  0  0  0  0  0  0  0  0  0  0  0
    5.7493   -0.0310   18.4104 C   0  0  0  0  0  0  0  0  0  0  0  0
    6.8793   -0.6268   22.4778 N   0  0  0  0  0  0  0  0  0  0  0  0
    5.8837    1.6518   17.0581 C   0  0  0  0  0  0  0  0  0  0  0  0
    6.2187    0.3868   17.2016 N   0  0  0  0  0  0  0  0  0  0  0  0
    6.7188   -1.6856   23.2546 C   0  0  0  0  0  0  0  0  0  0  0  0
    5.9884   -2.6085   22.8937 O   0  0  0  0  0  0  0  0  0  0  0  0
    7.4361   -1.7627   24.5924 C   0  0  0  0  0  0  0  0  0  0  0  0
    8.8667   -1.3073   24.4238 C   0  0  0  0  0  0  0  0  0  0  0  0
    9.7442   -1.7638   23.4743 N   0  0  0  0  0  0  0  0  0  0  0  0
    9.3592   -0.3620   25.2751 C   0  0  0  0  0  0  0  0  0  0  0  0
   10.9485   -1.2418   23.4830 C   0  0  0  0  0  0  0  0  0  0  0  0
   10.9641   -0.1249   24.7701 S   0  0  0  0  0  0  0  0  0  0  0  0
   12.1373   -1.5335   22.5784 C   0  0  0  0  0  0  0  0  0  0  0  0
    2.7036    1.2015   23.6051 H   0  0  0  0  0  0  0  0  0  0  0  0
    4.6483   -0.1606   23.3127 H   0  0  0  0  0  0  0  0  0  0  0  0
    6.8003   -0.1627   20.4982 H   0  0  0  0  0  0  0  0  0  0  0  0
    5.9091   -1.4705   20.9007 H   0  0  0  0  0  0  0  0  0  0  0  0
    5.8417   -0.9422   18.8119 H   0  0  0  0  0  0  0  0  0  0  0  0
    7.4727    0.1229   22.7710 H   0  0  0  0  0  0  0  0  0  0  0  0
    6.0971    2.2179   16.2618 H   0  0  0  0  0  0  0  0  0  0  0  0
    7.4235   -2.7062   24.9235 H   0  0  0  0  0  0  0  0  0  0  0  0
    6.9738   -1.1714   25.2531 H   0  0  0  0  0  0  0  0  0  0  0  0
    8.8821    0.0905   26.0285 H   0  0  0  0  0  0  0  0  0  0  0  0
   12.9116   -0.9622   22.8509 H   0  0  0  0  0  0  0  0  0  0  0  0
   12.3896   -2.4978   22.6601 H   0  0  0  0  0  0  0  0  0  0  0  0
   11.8919   -1.3323   21.6302 H   0  0  0  0  0  0  0  0  0  0  0  0
  1  2  1  0  0  0  0
  2  3  2  0  0  0  0
  2  4  1  0  0  0  0
  3  5  1  0  0  0  0
  3  6  1  0  0  0  0
  4  7  1  0  0  0  0
  4  8  2  0  0  0  0
  5  9  2  0  0  0  0
  5 10  1  0  0  0  0
  6 11  1  0  0  0  0
  6 12  2  0  0  0  0
 10 13  1  0  0  0  0
 11 14  1  0  0  0  0
 12 15  1  0  0  0  0
 13 16  1  0  0  0  0
 16 17  2  0  0  0  0
 16 18  1  0  0  0  0
 18 19  1  0  0  0  0
 19 20  1  0  0  0  0
 19 21  2  0  0  0  0
 20 22  2  0  0  0  0
 21 23  1  0  0  0  0
 22 24  1  0  0  0  0
  8  9  1  0  0  0  0
 14 15  2  0  0  0  0
 22 23  1  0  0  0  0
  8 25  1  0  0  0  0
  9 26  1  0  0  0  0
 10 27  1  0  0  0  0
 10 28  1  0  0  0  0
 12 29  1  0  0  0  0
 13 30  1  0  0  0  0
 14 31  1  0  0  0  0
 18 32  1  0  0  0  0
 18 33  1  0  0  0  0
 21 34  1  0  0  0  0
 24 35  1  0  0  0  0
 24 36  1  0  0  0  0
 24 37  1  0  0  0  0
M  END
> <BIOSOLVEIT.HYDE_ESTIMATED_AFFINITY_LOWER_BOUNDARY [nM]>
106463.638517

> <BIOSOLVEIT.HYDE_ESTIMATED_AFFINITY_UPPER_BOUNDARY [nM]>
10577791.949550

> <BIOSOLVEIT.HYDE_LIGAND_EFFICIENCY range: ++, +, 0, -, -->
--

> <BIOSOLVEIT.HYDE_LIGAND_LIPOPHILIC_EFFICIENCY range: ++, +, 0, -, -->
--

> <BIOSOLVEIT.INTER_CLASH range: red, yellow, green>
green

> <BIOSOLVEIT.INTRA_CLASH range: red, yellow, green>
red

> <BIOSOLVEIT.LOGP>
4.27222

> <BIOSOLVEIT.MOLECULAR WEIGHT>
382.269

> <BIOSOLVEIT.MOLECULE_CHECKSUM>
LTE2Ljk3Njg7MC43MDczNjU=

> <BIOSOLVEIT.TORSION_QUALITY range: red, yellow, green, not rotatable>
yellow

> <BIOSOLVEIT.TPSA>
68.02

> <BIOSOLVEIT.SEESAR_FAVORITE>
favorite

> <smc_score>
0.688

> <QED_score>
0.716

> <distance>
0.722

> <SimilarityPheSA_1>
0.698

> <Smiles>
Cc1nc(CC(=O)NCc2ccc(Cl)c(Cl)c2-c2cnco2)cs1

> <Similarity_SkelSpheres>
0.558

> <Cluster No>
325.0

> <QueryID>
PET-UNK-3c72d439-1

> <SimilarityPheSA>
0.6975

> <Postera series>
3-aminopyridine-like

> <PDB_code>
Mpro-x11810

> <Approach>
DGM_exploratory_RL

> <ID>
20210628_736

> <SimilarityPheSA_2>
0.641

> <OPTIBRIUM.logD>
3.9689

> <OPTIBRIUM.BBB category>
-

> <OPTIBRIUM.logP>
3.9689

> <OPTIBRIUM.P-gp category>
no

> <OPTIBRIUM.logS>
0.956208

> <OPTIBRIUM.HIA category>
+

> <OPTIBRIUM.PPB90 category>
high

> <OPTIBRIUM.2D6 affinity category>
medium

> <OPTIBRIUM.hERG pIC50>
4.35718

> <OPTIBRIUM.2C9 pKi>
5.56068

> <OPTIBRIUM.BBB log([brain]:[blood])>
-0.793273

> <OPTIBRIUM.logS @ pH7.4>
0.956208

$$$$
Compound 1566_1_6
haSeeSAR  07122114383D 1   1.00000     0.00000     0
SeeSAR 11.0.2 hazemaj
 51 54  0  0  0  0            999 V2000
   12.7277    2.2629   22.6763 Cl  0  0  0  0  0  0  0  0  0  0  0  0
   11.8744    0.7122   22.8685 C   0  0  0  0  0  0  0  0  0  0  0  0
   12.5556   -0.4849   22.6765 C   0  0  0  0  0  0  0  0  0  0  0  0
   10.5276    0.7118   23.2127 C   0  0  0  0  0  0  0  0  0  0  0  0
   14.2797   -0.4569   22.2354 Cl  0  0  0  0  0  0  0  0  0  0  0  0
   11.8989   -1.7025   22.8257 C   0  0  0  0  0  0  0  0  0  0  0  0
    9.8762   -0.5077   23.3600 C   0  0  0  0  0  0  0  0  0  0  0  0
   10.5510   -1.7086   23.1687 C   0  0  0  0  0  0  0  0  0  0  0  0
    8.4041   -0.5271   23.7363 C   0  0  0  0  0  0  0  0  0  0  0  0
    8.2228    0.1291   25.0377 N   0  3  1  0  0  0  0  0  0  0  0  0
    7.7251    1.5216   24.9248 C   0  0  0  0  0  0  0  0  0  0  0  0
    7.5019   -0.7177   26.0035 C   0  0  0  0  0  0  0  0  0  0  0  0
    6.4574    1.7348   24.0943 C   0  0  0  0  0  0  0  0  0  0  0  0
    5.9927   -0.5161   25.9912 C   0  0  0  0  0  0  0  0  0  0  0  0
    5.6987    0.5025   23.7983 N   0  0  0  0  0  0  0  0  0  0  0  0
    5.4506   -0.5827   24.5693 C   0  0  0  0  0  0  0  0  0  0  0  0
    5.0873    0.2146   22.6184 C   0  0  0  0  0  0  0  0  0  0  0  0
    4.7861   -1.4929   23.8679 N   0  0  0  0  0  0  0  0  0  0  0  0
    4.5571   -0.9821   22.6745 N   0  0  0  0  0  0  0  0  0  0  0  0
    5.0424    1.1544   21.4270 C   0  0  0  0  0  0  0  0  0  0  0  0
    5.6086    0.4789   20.2474 N   0  3  0  0  0  0  0  0  0  0  0  0
    5.1010    1.0746   19.0020 C   0  0  0  0  0  0  0  0  0  0  0  0
    7.0791    0.5213   20.2516 C   0  0  0  0  0  0  0  0  0  0  0  0
    5.6827    0.3600   17.7927 C   0  0  0  0  0  0  0  0  0  0  0  0
    7.6120   -0.1926   19.0193 C   0  0  0  0  0  0  0  0  0  0  0  0
    7.1021    0.3987   17.8315 O   0  0  0  0  0  0  0  0  0  0  0  0
   10.0367    1.5719   23.3516 H   0  0  0  0  0  0  0  0  0  0  0  0
   12.3900   -2.5626   22.6879 H   0  0  0  0  0  0  0  0  0  0  0  0
   10.0671   -2.5768   23.2779 H   0  0  0  0  0  0  0  0  0  0  0  0
    8.0871   -1.4739   23.7933 H   0  0  0  0  0  0  0  0  0  0  0  0
    7.8758   -0.0400   23.0409 H   0  0  0  0  0  0  0  0  0  0  0  0
    8.4526    2.0706   24.5133 H   0  0  0  0  0  0  0  0  0  0  0  0
    7.5402    1.8529   25.8500 H   0  0  0  0  0  0  0  0  0  0  0  0
    7.8404   -0.5080   26.9208 H   0  0  0  0  0  0  0  0  0  0  0  0
    7.6938   -1.6752   25.7882 H   0  0  0  0  0  0  0  0  0  0  0  0
    6.7210    2.1545   23.2258 H   0  0  0  0  0  0  0  0  0  0  0  0
    5.8570    2.3571   24.5965 H   0  0  0  0  0  0  0  0  0  0  0  0
    5.7781    0.3788   26.3825 H   0  0  0  0  0  0  0  0  0  0  0  0
    5.5616   -1.2320   26.5404 H   0  0  0  0  0  0  0  0  0  0  0  0
    5.5764    1.9752   21.6296 H   0  0  0  0  0  0  0  0  0  0  0  0
    4.0940    1.4113   21.2408 H   0  0  0  0  0  0  0  0  0  0  0  0
    5.3602    2.0399   18.9697 H   0  0  0  0  0  0  0  0  0  0  0  0
    4.1043    0.9962   18.9824 H   0  0  0  0  0  0  0  0  0  0  0  0
    7.4231    0.0681   21.0739 H   0  0  0  0  0  0  0  0  0  0  0  0
    7.3850    1.4734   20.2432 H   0  0  0  0  0  0  0  0  0  0  0  0
    5.3632    0.8098   16.9586 H   0  0  0  0  0  0  0  0  0  0  0  0
    5.3787   -0.5927   17.7949 H   0  0  0  0  0  0  0  0  0  0  0  0
    7.3354   -1.1530   19.0519 H   0  0  0  0  0  0  0  0  0  0  0  0
    8.6102   -0.1332   19.0123 H   0  0  0  0  0  0  0  0  0  0  0  0
    9.1460    0.2162   25.4120 H   0  0  0  0  0  0  0  0  0  0  0  0
    5.3250   -0.4797   20.2719 H   0  0  0  0  0  0  0  0  0  0  0  0
  1  2  1  0  0  0  0
  2  3  2  0  0  0  0
  2  4  1  0  0  0  0
  3  5  1  0  0  0  0
  3  6  1  0  0  0  0
  4  7  2  0  0  0  0
  6  8  2  0  0  0  0
  7  9  1  0  0  0  0
  9 10  1  0  0  0  0
 10 11  1  0  0  0  0
 10 12  1  0  0  0  0
 11 13  1  0  0  0  0
 12 14  1  0  0  0  0
 13 15  1  0  0  0  0
 14 16  1  0  0  0  0
 15 17  1  0  0  0  0
 16 18  2  0  0  0  0
 17 19  2  0  0  0  0
 17 20  1  0  0  0  0
 20 21  1  0  0  0  0
 21 22  1  0  0  0  0
 21 23  1  0  0  0  0
 22 24  1  0  0  0  0
 23 25  1  0  0  0  0
 24 26  1  0  0  0  0
  7  8  1  0  0  0  0
 15 16  1  0  0  0  0
 18 19  1  0  0  0  0
 25 26  1  0  0  0  0
  4 27  1  0  0  0  0
  6 28  1  0  0  0  0
  8 29  1  0  0  0  0
  9 30  1  0  0  0  0
  9 31  1  0  0  0  0
 11 32  1  0  0  0  0
 11 33  1  0  0  0  0
 12 34  1  0  0  0  0
 12 35  1  0  0  0  0
 13 36  1  0  0  0  0
 13 37  1  0  0  0  0
 14 38  1  0  0  0  0
 14 39  1  0  0  0  0
 20 40  1  0  0  0  0
 20 41  1  0  0  0  0
 22 42  1  0  0  0  0
 22 43  1  0  0  0  0
 23 44  1  0  0  0  0
 23 45  1  0  0  0  0
 24 46  1  0  0  0  0
 24 47  1  0  0  0  0
 25 48  1  0  0  0  0
 25 49  1  0  0  0  0
 10 50  1  0  0  0  0
 21 51  1  0  0  0  0
M  CHG  2  10   1  21   1
M  END
> <BIOSOLVEIT.HYDE_ESTIMATED_AFFINITY_LOWER_BOUNDARY [nM]>
308919.315924

> <BIOSOLVEIT.HYDE_ESTIMATED_AFFINITY_UPPER_BOUNDARY [nM]>
30692960.512613

> <BIOSOLVEIT.HYDE_LIGAND_EFFICIENCY range: ++, +, 0, -, -->
--

> <BIOSOLVEIT.HYDE_LIGAND_LIPOPHILIC_EFFICIENCY range: ++, +, 0, -, -->
-

> <BIOSOLVEIT.INTER_CLASH range: red, yellow, green>
green

> <BIOSOLVEIT.INTRA_CLASH range: red, yellow, green>
yellow

> <BIOSOLVEIT.LOGP>
-0.3588

> <BIOSOLVEIT.MOLECULAR WEIGHT>
398.336

> <BIOSOLVEIT.MOLECULE_CHECKSUM>
LTE0LjMzNjswLjU1MTM4NA==

> <BIOSOLVEIT.TORSION_QUALITY range: red, yellow, green, not rotatable>
green

> <BIOSOLVEIT.TPSA>
48.82

> <BIOSOLVEIT.SEESAR_FAVORITE>
favorite

> <smc_score>
0.625

> <QED_score>
0.795

> <distance>
0.75

> <SimilarityPheSA_1>
0.631

> <Smiles>
Clc1ccc(CN2CCc3nnc(CN4CCOCC4)n3CC2)cc1Cl

> <Similarity_SkelSpheres>
0.598

> <Cluster No>
379.0

> <QueryID>
MAT-POS-bb423b95-1

> <SimilarityPheSA>
0.6306

> <Postera series>
3-aminopyridine-like

> <PDB_code>
Mpro-x11542

> <Approach>
DGM_exploratory_RL

> <ID>
20210628_836

> <SimilarityPheSA_2>
0.65

> <OPTIBRIUM.logD>
1.69346

> <OPTIBRIUM.BBB category>
-

> <OPTIBRIUM.logP>
1.96263

> <OPTIBRIUM.P-gp category>
yes

> <OPTIBRIUM.logS>
3.90345

> <OPTIBRIUM.HIA category>
+

> <OPTIBRIUM.PPB90 category>
high

> <OPTIBRIUM.2D6 affinity category>
medium

> <OPTIBRIUM.hERG pIC50>
6.04518

> <OPTIBRIUM.2C9 pKi>
4.67226

> <OPTIBRIUM.BBB log([brain]:[blood])>
0.0555612

> <OPTIBRIUM.logS @ pH7.4>
2.50654

$$$$
Compound 1566_1_7
haSeeSAR  07122114383D 1   1.00000     0.00000     0
SeeSAR 11.0.2 hazemaj
 51 54  0  0  0  0            999 V2000
   12.7256    2.2595   22.6793 Cl  0  0  0  0  0  0  0  0  0  0  0  0
   11.8734    0.7081   22.8710 C   0  0  0  0  0  0  0  0  0  0  0  0
   12.5551   -0.4885   22.6767 C   0  0  0  0  0  0  0  0  0  0  0  0
   10.5271    0.7064   23.2168 C   0  0  0  0  0  0  0  0  0  0  0  0
   14.2787   -0.4589   22.2334 Cl  0  0  0  0  0  0  0  0  0  0  0  0
   11.8994   -1.7066   22.8254 C   0  0  0  0  0  0  0  0  0  0  0  0
    9.8766   -0.5136   23.3636 C   0  0  0  0  0  0  0  0  0  0  0  0
   10.5519   -1.7139   23.1702 C   0  0  0  0  0  0  0  0  0  0  0  0
    8.4051   -0.5343   23.7419 C   0  0  0  0  0  0  0  0  0  0  0  0
    8.2254    0.1178   25.0455 N   0  3  1  0  0  0  0  0  0  0  0  0
    7.7298    1.5114   24.9375 C   0  0  0  0  0  0  0  0  0  0  0  0
    7.5036   -0.7310   26.0089 C   0  0  0  0  0  0  0  0  0  0  0  0
    6.4621    1.7295   24.1083 C   0  0  0  0  0  0  0  0  0  0  0  0
    5.9948   -0.5270   25.9979 C   0  0  0  0  0  0  0  0  0  0  0  0
    5.7013    0.4993   23.8086 N   0  0  0  0  0  0  0  0  0  0  0  0
    5.4518   -0.5880   24.5761 C   0  0  0  0  0  0  0  0  0  0  0  0
    5.0888    0.2163   22.6281 C   0  0  0  0  0  0  0  0  0  0  0  0
    4.7855   -1.4948   23.8720 N   0  0  0  0  0  0  0  0  0  0  0  0
    4.5568   -0.9797   22.6804 N   0  0  0  0  0  0  0  0  0  0  0  0
    5.0448    1.1601   21.4398 C   0  0  0  0  0  0  0  0  0  0  0  0
    5.5942    0.4820   20.2537 N   0  3  0  0  0  0  0  0  0  0  0  0
    7.0640    0.5313   20.2493 C   0  0  0  0  0  0  0  0  0  0  0  0
    5.0976    1.0698   19.0004 C   0  0  0  0  0  0  0  0  0  0  0  0
    7.6215   -0.1836   19.0284 C   0  0  0  0  0  0  0  0  0  0  0  0
    5.6856    0.3469   17.7984 C   0  0  0  0  0  0  0  0  0  0  0  0
    7.1054    0.3887   17.8348 O   0  0  0  0  0  0  0  0  0  0  0  0
   10.0359    1.5661   23.3573 H   0  0  0  0  0  0  0  0  0  0  0  0
   12.3908   -2.5662   22.6861 H   0  0  0  0  0  0  0  0  0  0  0  0
   10.0686   -2.5826   23.2791 H   0  0  0  0  0  0  0  0  0  0  0  0
    8.0882   -1.4813   23.7964 H   0  0  0  0  0  0  0  0  0  0  0  0
    7.8757   -0.0452   23.0487 H   0  0  0  0  0  0  0  0  0  0  0  0
    8.4580    2.0607   24.5274 H   0  0  0  0  0  0  0  0  0  0  0  0
    7.5460    1.8400   25.8638 H   0  0  0  0  0  0  0  0  0  0  0  0
    7.8429   -0.5249   26.9267 H   0  0  0  0  0  0  0  0  0  0  0  0
    7.6939   -1.6881   25.7903 H   0  0  0  0  0  0  0  0  0  0  0  0
    6.7260    2.1516   23.2410 H   0  0  0  0  0  0  0  0  0  0  0  0
    5.8629    2.3510   24.6129 H   0  0  0  0  0  0  0  0  0  0  0  0
    5.7817    0.3669   26.3923 H   0  0  0  0  0  0  0  0  0  0  0  0
    5.5628   -1.2441   26.5450 H   0  0  0  0  0  0  0  0  0  0  0  0
    5.5896    1.9744   21.6405 H   0  0  0  0  0  0  0  0  0  0  0  0
    4.0979    1.4280   21.2619 H   0  0  0  0  0  0  0  0  0  0  0  0
    7.4100    0.0876   21.0760 H   0  0  0  0  0  0  0  0  0  0  0  0
    7.3605    1.4862   20.2345 H   0  0  0  0  0  0  0  0  0  0  0  0
    5.3593    2.0343   18.9638 H   0  0  0  0  0  0  0  0  0  0  0  0
    4.1009    0.9935   18.9742 H   0  0  0  0  0  0  0  0  0  0  0  0
    7.3648   -1.1493   19.0674 H   0  0  0  0  0  0  0  0  0  0  0  0
    8.6182   -0.1034   19.0271 H   0  0  0  0  0  0  0  0  0  0  0  0
    5.3652    0.7886   16.9604 H   0  0  0  0  0  0  0  0  0  0  0  0
    5.3846   -0.6066   17.8088 H   0  0  0  0  0  0  0  0  0  0  0  0
    9.1489    0.2022   25.4196 H   0  0  0  0  0  0  0  0  0  0  0  0
    5.3130   -0.4772   20.2829 H   0  0  0  0  0  0  0  0  0  0  0  0
  1  2  1  0  0  0  0
  2  3  2  0  0  0  0
  2  4  1  0  0  0  0
  3  5  1  0  0  0  0
  3  6  1  0  0  0  0
  4  7  2  0  0  0  0
  6  8  2  0  0  0  0
  7  9  1  0  0  0  0
  9 10  1  0  0  0  0
 10 11  1  0  0  0  0
 10 12  1  0  0  0  0
 11 13  1  0  0  0  0
 12 14  1  0  0  0  0
 13 15  1  0  0  0  0
 14 16  1  0  0  0  0
 15 17  1  0  0  0  0
 16 18  2  0  0  0  0
 17 19  2  0  0  0  0
 17 20  1  0  0  0  0
 20 21  1  0  0  0  0
 21 22  1  0  0  0  0
 21 23  1  0  0  0  0
 22 24  1  0  0  0  0
 23 25  1  0  0  0  0
 24 26  1  0  0  0  0
  7  8  1  0  0  0  0
 15 16  1  0  0  0  0
 18 19  1  0  0  0  0
 25 26  1  0  0  0  0
  4 27  1  0  0  0  0
  6 28  1  0  0  0  0
  8 29  1  0  0  0  0
  9 30  1  0  0  0  0
  9 31  1  0  0  0  0
 11 32  1  0  0  0  0
 11 33  1  0  0  0  0
 12 34  1  0  0  0  0
 12 35  1  0  0  0  0
 13 36  1  0  0  0  0
 13 37  1  0  0  0  0
 14 38  1  0  0  0  0
 14 39  1  0  0  0  0
 20 40  1  0  0  0  0
 20 41  1  0  0  0  0
 22 42  1  0  0  0  0
 22 43  1  0  0  0  0
 23 44  1  0  0  0  0
 23 45  1  0  0  0  0
 24 46  1  0  0  0  0
 24 47  1  0  0  0  0
 25 48  1  0  0  0  0
 25 49  1  0  0  0  0
 10 50  1  0  0  0  0
 21 51  1  0  0  0  0
M  CHG  2  10   1  21   1
M  END
> <BIOSOLVEIT.HYDE_ESTIMATED_AFFINITY_LOWER_BOUNDARY [nM]>
317241.503421

> <BIOSOLVEIT.HYDE_ESTIMATED_AFFINITY_UPPER_BOUNDARY [nM]>
31519819.045120

> <BIOSOLVEIT.HYDE_LIGAND_EFFICIENCY range: ++, +, 0, -, -->
--

> <BIOSOLVEIT.HYDE_LIGAND_LIPOPHILIC_EFFICIENCY range: ++, +, 0, -, -->
-

> <BIOSOLVEIT.INTER_CLASH range: red, yellow, green>
green

> <BIOSOLVEIT.INTRA_CLASH range: red, yellow, green>
yellow

> <BIOSOLVEIT.LOGP>
-0.3588

> <BIOSOLVEIT.MOLECULAR WEIGHT>
398.336

> <BIOSOLVEIT.MOLECULE_CHECKSUM>
LTE0LjI3MDE7MC41NDg4NQ==

> <BIOSOLVEIT.TORSION_QUALITY range: red, yellow, green, not rotatable>
green

> <BIOSOLVEIT.TPSA>
48.82

> <BIOSOLVEIT.SEESAR_FAVORITE>
favorite

> <smc_score>
0.625

> <QED_score>
0.795

> <distance>
0.75

> <SimilarityPheSA_1>
0.631

> <Smiles>
Clc1ccc(CN2CCc3nnc(CN4CCOCC4)n3CC2)cc1Cl

> <Similarity_SkelSpheres>
0.598

> <Cluster No>
379.0

> <QueryID>
MAT-POS-bb423b95-1

> <SimilarityPheSA>
0.6306

> <Postera series>
3-aminopyridine-like

> <PDB_code>
Mpro-x11542

> <Approach>
DGM_exploratory_RL

> <ID>
20210628_836

> <SimilarityPheSA_2>
0.65

> <OPTIBRIUM.logD>
1.69346

> <OPTIBRIUM.BBB category>
-

> <OPTIBRIUM.logP>
1.96263

> <OPTIBRIUM.P-gp category>
yes

> <OPTIBRIUM.logS>
3.90345

> <OPTIBRIUM.HIA category>
+

> <OPTIBRIUM.PPB90 category>
high

> <OPTIBRIUM.2D6 affinity category>
medium

> <OPTIBRIUM.hERG pIC50>
6.04518

> <OPTIBRIUM.2C9 pKi>
4.67226

> <OPTIBRIUM.BBB log([brain]:[blood])>
0.0555612

> <OPTIBRIUM.logS @ pH7.4>
2.50654

$$$$
Compound 902_1_01
haSeeSAR  07122114383D 1   1.00000     0.00000     0
SeeSAR 11.0.2 hazemaj
 38 40  0  0  0  0            999 V2000
    1.1114    2.9246   21.6206 Cl  0  0  0  0  0  0  0  0  0  0  0  0
    2.5748    1.9250   21.4548 C   0  0  0  0  0  0  0  0  0  0  0  0
    3.0328    1.1881   22.5417 C   0  0  0  0  0  0  0  0  0  0  0  0
    3.2497    1.8882   20.2392 C   0  0  0  0  0  0  0  0  0  0  0  0
    2.1561    1.2470   24.0893 Cl  0  0  0  0  0  0  0  0  0  0  0  0
    4.1750    0.4026   22.4275 C   0  0  0  0  0  0  0  0  0  0  0  0
    4.3918    1.1022   20.1281 C   0  0  0  0  0  0  0  0  0  0  0  0
    4.8526    0.3639   21.2134 C   0  0  0  0  0  0  0  0  0  0  0  0
    5.0706    1.0660   18.9041 N   0  0  0  0  0  0  0  0  0  0  0  0
    6.1009   -0.4945   21.0889 C   0  0  0  0  0  0  0  0  0  0  0  0
    5.2060    2.0760   18.0682 N   0  0  0  0  0  0  0  0  0  0  0  0
    5.6933   -0.0282   18.3789 C   0  0  0  0  0  0  0  0  0  0  0  0
    6.7774   -0.5673   22.3919 N   0  0  0  0  0  0  0  0  0  0  0  0
    5.9032    1.6649   17.0272 C   0  0  0  0  0  0  0  0  0  0  0  0
    6.2004    0.3456   17.2234 N   0  0  0  0  0  0  0  0  0  0  0  0
    6.6387   -1.6426   23.1501 C   0  0  0  0  0  0  0  0  0  0  0  0
    5.9431   -2.5821   22.7644 O   0  0  0  0  0  0  0  0  0  0  0  0
    7.3383   -1.7178   24.4975 C   0  0  0  0  0  0  0  0  0  0  0  0
    8.7763   -1.2506   24.3483 C   0  0  0  0  0  0  0  0  0  0  0  0
    9.1340    0.0210   24.7838 C   0  0  0  0  0  0  0  0  0  0  0  0
    9.7110   -2.1068   23.7755 C   0  0  0  0  0  0  0  0  0  0  0  0
   10.4548    0.4311   24.6381 C   0  0  0  0  0  0  0  0  0  0  0  0
   11.0253   -1.6725   23.6413 C   0  0  0  0  0  0  0  0  0  0  0  0
   10.8083    1.6446   25.0509 F   0  0  0  0  0  0  0  0  0  0  0  0
   11.4090   -0.4058   24.0690 C   0  0  0  0  0  0  0  0  0  0  0  0
   11.9332   -2.4768   23.0964 F   0  0  0  0  0  0  0  0  0  0  0  0
    2.9194    2.4181   19.4581 H   0  0  0  0  0  0  0  0  0  0  0  0
    4.5050   -0.1276   23.2085 H   0  0  0  0  0  0  0  0  0  0  0  0
    6.7185   -0.0891   20.4148 H   0  0  0  0  0  0  0  0  0  0  0  0
    5.8444   -1.4151   20.7946 H   0  0  0  0  0  0  0  0  0  0  0  0
    5.7529   -0.9372   18.7915 H   0  0  0  0  0  0  0  0  0  0  0  0
    7.3425    0.1959   22.7052 H   0  0  0  0  0  0  0  0  0  0  0  0
    6.1666    2.2184   16.2372 H   0  0  0  0  0  0  0  0  0  0  0  0
    7.3270   -2.6621   24.8266 H   0  0  0  0  0  0  0  0  0  0  0  0
    6.8633   -1.1307   25.1529 H   0  0  0  0  0  0  0  0  0  0  0  0
    8.4541    0.6289   25.1940 H   0  0  0  0  0  0  0  0  0  0  0  0
    9.4425   -3.0188   23.4655 H   0  0  0  0  0  0  0  0  0  0  0  0
   12.3563   -0.1014   23.9690 H   0  0  0  0  0  0  0  0  0  0  0  0
  1  2  1  0  0  0  0
  2  3  2  0  0  0  0
  2  4  1  0  0  0  0
  3  5  1  0  0  0  0
  3  6  1  0  0  0  0
  4  7  2  0  0  0  0
  6  8  2  0  0  0  0
  7  9  1  0  0  0  0
  8 10  1  0  0  0  0
  9 11  1  0  0  0  0
  9 12  1  0  0  0  0
 10 13  1  0  0  0  0
 11 14  2  0  0  0  0
 12 15  2  0  0  0  0
 13 16  1  0  0  0  0
 16 17  2  0  0  0  0
 16 18  1  0  0  0  0
 18 19  1  0  0  0  0
 19 20  2  0  0  0  0
 19 21  1  0  0  0  0
 20 22  1  0  0  0  0
 21 23  2  0  0  0  0
 22 24  1  0  0  0  0
 22 25  2  0  0  0  0
 23 26  1  0  0  0  0
  7  8  1  0  0  0  0
 14 15  1  0  0  0  0
 23 25  1  0  0  0  0
  4 27  1  0  0  0  0
  6 28  1  0  0  0  0
 10 29  1  0  0  0  0
 10 30  1  0  0  0  0
 12 31  1  0  0  0  0
 13 32  1  0  0  0  0
 14 33  1  0  0  0  0
 18 34  1  0  0  0  0
 18 35  1  0  0  0  0
 20 36  1  0  0  0  0
 21 37  1  0  0  0  0
 25 38  1  0  0  0  0
M  END
> <BIOSOLVEIT.HYDE_ESTIMATED_AFFINITY_LOWER_BOUNDARY [nM]>
415223.529071

> <BIOSOLVEIT.HYDE_ESTIMATED_AFFINITY_UPPER_BOUNDARY [nM]>
41254912.609031

> <BIOSOLVEIT.HYDE_LIGAND_EFFICIENCY range: ++, +, 0, -, -->
--

> <BIOSOLVEIT.HYDE_LIGAND_LIPOPHILIC_EFFICIENCY range: ++, +, 0, -, -->
--

> <BIOSOLVEIT.INTER_CLASH range: red, yellow, green>
green

> <BIOSOLVEIT.INTRA_CLASH range: red, yellow, green>
red

> <BIOSOLVEIT.LOGP>
3.7112

> <BIOSOLVEIT.MOLECULAR WEIGHT>
397.211

> <BIOSOLVEIT.MOLECULE_CHECKSUM>
LTEzLjYwMjk7MC41MjMxODg=

> <BIOSOLVEIT.TORSION_QUALITY range: red, yellow, green, not rotatable>
yellow

> <BIOSOLVEIT.TPSA>
59.81

> <BIOSOLVEIT.SEESAR_FAVORITE>
favorite

> <smc_score>
1.0

> <QED_score>
0.714

> <distance>
0.644

> <SimilarityPheSA_1>
0.716

> <Smiles>
O=C(Cc1cc(F)cc(F)c1)NCc1cc(Cl)c(Cl)cc1-n1cncn1

> <Similarity_SkelSpheres>
0.689

> <Cluster No>
71.0

> <QueryID>
ADA-UCB-6c2cb422-1

> <SimilarityPheSA>
0.7159

> <Postera series>
3-aminopyridine-like

> <PDB_code>
Mpro-x10959

> <Approach>
DGM_exploratory_RL

> <ID>
20210628_172

> <SimilarityPheSA_2>
0.697

> <OPTIBRIUM.logD>
3.07868

> <OPTIBRIUM.BBB category>
-

> <OPTIBRIUM.logP>
3.07868

> <OPTIBRIUM.P-gp category>
no

> <OPTIBRIUM.logS>
0.551042

> <OPTIBRIUM.HIA category>
+

> <OPTIBRIUM.PPB90 category>
high

> <OPTIBRIUM.2D6 affinity category>
medium

> <OPTIBRIUM.hERG pIC50>
4.94515

> <OPTIBRIUM.2C9 pKi>
5.43499

> <OPTIBRIUM.BBB log([brain]:[blood])>
-0.31882

> <OPTIBRIUM.logS @ pH7.4>
0.551042

$$$$
Compound 589_1_1
haSeeSAR  07122114383D 1   1.00000     0.00000     0
SeeSAR 11.0.2 hazemaj
 40 42  0  0  0  0            999 V2000
    2.7810    2.7520   19.3092 Cl  0  0  0  0  0  0  0  0  0  0  0  0
    3.2431    1.9957   20.8529 C   0  0  0  0  0  0  0  0  0  0  0  0
    4.5189    1.4596   20.9978 C   0  0  0  0  0  0  0  0  0  0  0  0
    2.3260    1.9496   21.8976 C   0  0  0  0  0  0  0  0  0  0  0  0
    5.4006    1.5098   19.9761 O   0  0  0  0  0  0  0  0  0  0  0  0
    4.8837    0.8679   22.2030 C   0  0  0  0  0  0  0  0  0  0  0  0
    2.6950    1.3570   23.1006 C   0  0  0  0  0  0  0  0  0  0  0  0
    4.9897    1.1503   18.6653 C   0  0  0  0  0  0  0  0  0  0  0  0
    3.9692    0.8195   23.2497 C   0  0  0  0  0  0  0  0  0  0  0  0
    6.2749    0.2777   22.3697 C   0  0  0  0  0  0  0  0  0  0  0  0
    5.8641    0.0128   18.1528 C   0  0  1  0  0  0  0  0  0  0  0  0
    4.4173    0.0665   24.7989 Cl  0  0  0  0  0  0  0  0  0  0  0  0
    6.1623   -1.2075   22.6728 C   0  0  0  0  0  0  0  0  0  0  0  0
    7.2095    0.3083   17.8108 O   0  0  0  0  0  0  0  0  0  0  0  0
    6.4396   -0.8012   19.2858 C   0  0  0  0  0  0  0  0  0  0  0  0
    5.3308   -1.8952   22.0804 O   0  0  0  0  0  0  0  0  0  0  0  0
    6.9579   -1.7611   23.5733 N   0  0  0  0  0  0  0  0  0  0  0  0
    7.6275    0.1208   19.1463 C   0  0  0  0  0  0  0  0  0  0  0  0
    7.3320   -3.1055   23.4456 C   0  0  0  0  0  0  0  0  0  0  0  0
    8.5990   -3.5980   23.3489 N   0  0  0  0  0  0  0  0  0  0  0  0
    6.5030   -4.1830   23.3932 C   0  0  0  0  0  0  0  0  0  0  0  0
    8.5316   -4.9048   23.2393 N   0  0  0  0  0  0  0  0  0  0  0  0
    9.8223   -2.7855   23.3641 C   0  0  0  0  0  0  0  0  0  0  0  0
    7.3099   -5.2749   23.2644 N   0  0  0  0  0  0  0  0  0  0  0  0
    1.4116    2.3382   21.7851 H   0  0  0  0  0  0  0  0  0  0  0  0
    2.0440    1.3173   23.8587 H   0  0  0  0  0  0  0  0  0  0  0  0
    5.0810    1.9401   18.0588 H   0  0  0  0  0  0  0  0  0  0  0  0
    4.0348    0.8538   18.6849 H   0  0  0  0  0  0  0  0  0  0  0  0
    6.7436    0.7373   23.1241 H   0  0  0  0  0  0  0  0  0  0  0  0
    6.7953    0.4073   21.5257 H   0  0  0  0  0  0  0  0  0  0  0  0
    5.4044   -0.5500   17.4659 H   0  0  0  0  0  0  0  0  0  0  0  0
    6.6170   -1.7626   19.0750 H   0  0  0  0  0  0  0  0  0  0  0  0
    5.9466   -0.7356   20.1533 H   0  0  0  0  0  0  0  0  0  0  0  0
    7.2924   -1.2202   24.3450 H   0  0  0  0  0  0  0  0  0  0  0  0
    7.5934    0.9409   19.7174 H   0  0  0  0  0  0  0  0  0  0  0  0
    8.5183   -0.3213   19.2507 H   0  0  0  0  0  0  0  0  0  0  0  0
    5.5041   -4.1758   23.4397 H   0  0  0  0  0  0  0  0  0  0  0  0
   10.6200   -3.3825   23.2790 H   0  0  0  0  0  0  0  0  0  0  0  0
    9.8046   -2.1419   22.5990 H   0  0  0  0  0  0  0  0  0  0  0  0
    9.8753   -2.2790   24.2247 H   0  0  0  0  0  0  0  0  0  0  0  0
  1  2  1  0  0  0  0
  2  3  2  0  0  0  0
  2  4  1  0  0  0  0
  3  5  1  0  0  0  0
  3  6  1  0  0  0  0
  4  7  2  0  0  0  0
  5  8  1  0  0  0  0
  6  9  2  0  0  0  0
  6 10  1  0  0  0  0
  8 11  1  0  0  0  0
  9 12  1  0  0  0  0
 10 13  1  0  0  0  0
 11 14  1  0  0  0  0
 11 15  1  0  0  0  0
 13 16  2  0  0  0  0
 13 17  1  0  0  0  0
 14 18  1  0  0  0  0
 17 19  1  0  0  0  0
 19 20  1  0  0  0  0
 19 21  2  0  0  0  0
 20 22  1  0  0  0  0
 20 23  1  0  0  0  0
 21 24  1  0  0  0  0
  7  9  1  0  0  0  0
 15 18  1  0  0  0  0
 22 24  2  0  0  0  0
  4 25  1  0  0  0  0
  7 26  1  0  0  0  0
  8 27  1  0  0  0  0
  8 28  1  0  0  0  0
 10 29  1  0  0  0  0
 10 30  1  0  0  0  0
 11 31  1  0  0  0  0
 15 32  1  0  0  0  0
 15 33  1  0  0  0  0
 17 34  1  0  0  0  0
 18 35  1  0  0  0  0
 18 36  1  0  0  0  0
 21 37  1  0  0  0  0
 23 38  1  0  0  0  0
 23 39  1  0  0  0  0
 23 40  1  0  0  0  0
M  END
> <BIOSOLVEIT.HYDE_ESTIMATED_AFFINITY_LOWER_BOUNDARY [nM]>
658599.794890

> <BIOSOLVEIT.HYDE_ESTIMATED_AFFINITY_UPPER_BOUNDARY [nM]>
65435783.572459

> <BIOSOLVEIT.HYDE_LIGAND_EFFICIENCY range: ++, +, 0, -, -->
--

> <BIOSOLVEIT.HYDE_LIGAND_LIPOPHILIC_EFFICIENCY range: ++, +, 0, -, -->
--

> <BIOSOLVEIT.INTER_CLASH range: red, yellow, green>
green

> <BIOSOLVEIT.INTRA_CLASH range: red, yellow, green>
red

> <BIOSOLVEIT.LOGP>
2.4708

> <BIOSOLVEIT.MOLECULAR WEIGHT>
371.222

> <BIOSOLVEIT.MOLECULE_CHECKSUM>
LTEyLjQ1OTM7MC41MTkxMzk=

> <BIOSOLVEIT.TORSION_QUALITY range: red, yellow, green, not rotatable>
red

> <BIOSOLVEIT.TPSA>
78.27

> <BIOSOLVEIT.SEESAR_FAVORITE>
favorite

> <smc_score>
0.625

> <QED_score>
0.844

> <distance>
0.711

> <SimilarityPheSA_1>
0.672

> <Smiles>
Cn1nncc1NC(=O)Cc1c(Cl)ccc(Cl)c1OCC1CCO1

> <Similarity_SkelSpheres>
0.564

> <Cluster No>
317.0

> <QueryID>
JAG-UCB-a3ef7265-20

> <SimilarityPheSA>
0.672

> <Postera series>
3-aminopyridine-like

> <PDB_code>
Mpro-x10324

> <Approach>
DGM_focussed_RL

> <ID>
20210618_588

> <SimilarityPheSA_2>
0.729

> <OPTIBRIUM.logD>
2.74177

> <OPTIBRIUM.BBB category>
-

> <OPTIBRIUM.logP>
2.74177

> <OPTIBRIUM.P-gp category>
no

> <OPTIBRIUM.logS>
2.35026

> <OPTIBRIUM.HIA category>
+

> <OPTIBRIUM.PPB90 category>
high

> <OPTIBRIUM.2D6 affinity category>
high

> <OPTIBRIUM.hERG pIC50>
4.6706

> <OPTIBRIUM.2C9 pKi>
5.06888

> <OPTIBRIUM.BBB log([brain]:[blood])>
-0.185154

> <OPTIBRIUM.logS @ pH7.4>
2.35026

$$$$
Compound 1091_1_06
haSeeSAR  07122114383D 1   1.00000     0.00000     0
SeeSAR 11.0.2 hazemaj
 42 44  0  0  0  0            999 V2000
    0.4323    2.4636   21.2318 Cl  0  0  0  0  0  0  0  0  0  0  0  0
    2.1164    1.8995   21.3499 C   0  0  0  0  0  0  0  0  0  0  0  0
    2.6691    1.6366   22.5986 C   0  0  0  0  0  0  0  0  0  0  0  0
    2.8673    1.7255   20.1920 C   0  0  0  0  0  0  0  0  0  0  0  0
    1.6932    1.8642   24.0693 Cl  0  0  0  0  0  0  0  0  0  0  0  0
    3.9838    1.1955   22.7069 C   0  0  0  0  0  0  0  0  0  0  0  0
    4.1817    1.2847   20.3034 C   0  0  0  0  0  0  0  0  0  0  0  0
    4.7376    1.0209   21.5510 C   0  0  0  0  0  0  0  0  0  0  0  0
    4.9367    1.1102   19.1375 N   0  0  0  0  0  0  0  0  0  0  0  0
    6.1744    0.5389   21.6696 C   0  0  0  0  0  0  0  0  0  0  0  0
    5.5544   -0.0349   18.7402 C   0  0  0  0  0  0  0  0  0  0  0  0
    5.1841    2.0631   18.1947 C   0  0  0  0  0  0  0  0  0  0  0  0
    6.3958   -0.0158   23.0128 N   0  0  0  0  0  0  0  0  0  0  0  0
    6.1661    0.1780   17.5963 N   0  0  0  0  0  0  0  0  0  0  0  0
    5.5325   -1.3485   19.5036 C   0  0  0  0  0  0  0  0  0  0  0  0
    5.9520    1.4761   17.2320 C   0  0  0  0  0  0  0  0  0  0  0  0
    5.9947   -1.2445   23.2955 C   0  0  0  0  0  0  0  0  0  0  0  0
    5.4362   -1.9232   22.4337 O   0  0  0  0  0  0  0  0  0  0  0  0
    6.2237   -1.8180   24.6844 C   0  0  0  0  0  0  0  0  0  0  0  0
    7.6340   -2.3783   24.7751 C   0  0  0  0  0  0  0  0  0  0  0  0
    8.0977   -3.2218   25.7431 N   0  0  0  0  0  0  0  0  0  0  0  0
    8.6439   -2.1177   23.9057 C   0  0  0  0  0  0  0  0  0  0  0  0
    9.3626   -3.4899   25.4965 N   0  0  0  0  0  0  0  0  0  0  0  0
    9.7370   -2.8540   24.4118 C   0  0  0  0  0  0  0  0  0  0  0  0
   11.1234   -2.9000   23.7932 C   0  0  0  0  0  0  0  0  0  0  0  0
    2.4687    1.9143   19.2946 H   0  0  0  0  0  0  0  0  0  0  0  0
    4.3820    1.0063   23.6045 H   0  0  0  0  0  0  0  0  0  0  0  0
    6.7971    1.3067   21.5193 H   0  0  0  0  0  0  0  0  0  0  0  0
    6.3462   -0.1688   20.9842 H   0  0  0  0  0  0  0  0  0  0  0  0
    4.8640    3.0104   18.2063 H   0  0  0  0  0  0  0  0  0  0  0  0
    6.8496    0.5356   23.7129 H   0  0  0  0  0  0  0  0  0  0  0  0
    6.0603   -2.0342   19.0023 H   0  0  0  0  0  0  0  0  0  0  0  0
    5.9351   -1.2146   20.4092 H   0  0  0  0  0  0  0  0  0  0  0  0
    4.5878   -1.6613   19.6018 H   0  0  0  0  0  0  0  0  0  0  0  0
    6.2976    1.9190   16.4046 H   0  0  0  0  0  0  0  0  0  0  0  0
    5.5630   -2.5488   24.8563 H   0  0  0  0  0  0  0  0  0  0  0  0
    6.1073   -1.0961   25.3665 H   0  0  0  0  0  0  0  0  0  0  0  0
    8.6190   -1.5367   23.0923 H   0  0  0  0  0  0  0  0  0  0  0  0
   11.7138   -3.4917   24.3420 H   0  0  0  0  0  0  0  0  0  0  0  0
   11.0614   -3.2614   22.8628 H   0  0  0  0  0  0  0  0  0  0  0  0
   11.5077   -1.9771   23.7674 H   0  0  0  0  0  0  0  0  0  0  0  0
    9.9464   -4.0848   26.0490 H   0  0  0  0  0  0  0  0  0  0  0  0
  1  2  1  0  0  0  0
  2  3  2  0  0  0  0
  2  4  1  0  0  0  0
  3  5  1  0  0  0  0
  3  6  1  0  0  0  0
  4  7  2  0  0  0  0
  6  8  2  0  0  0  0
  7  9  1  0  0  0  0
  8 10  1  0  0  0  0
  9 11  1  0  0  0  0
  9 12  1  0  0  0  0
 10 13  1  0  0  0  0
 11 14  2  0  0  0  0
 11 15  1  0  0  0  0
 12 16  2  0  0  0  0
 13 17  1  0  0  0  0
 17 18  2  0  0  0  0
 17 19  1  0  0  0  0
 19 20  1  0  0  0  0
 20 21  2  0  0  0  0
 20 22  1  0  0  0  0
 21 23  1  0  0  0  0
 22 24  2  0  0  0  0
 24 25  1  0  0  0  0
  7  8  1  0  0  0  0
 14 16  1  0  0  0  0
 23 24  1  0  0  0  0
  4 26  1  0  0  0  0
  6 27  1  0  0  0  0
 10 28  1  0  0  0  0
 10 29  1  0  0  0  0
 12 30  1  0  0  0  0
 13 31  1  0  0  0  0
 15 32  1  0  0  0  0
 15 33  1  0  0  0  0
 15 34  1  0  0  0  0
 16 35  1  0  0  0  0
 19 36  1  0  0  0  0
 19 37  1  0  0  0  0
 25 41  1  0  0  0  0
 22 38  1  0  0  0  0
 25 39  1  0  0  0  0
 25 40  1  0  0  0  0
 23 42  1  0  0  0  0
M  END
> <BIOSOLVEIT.HYDE_ESTIMATED_AFFINITY_LOWER_BOUNDARY [nM]>
776864.323993

> <BIOSOLVEIT.HYDE_ESTIMATED_AFFINITY_UPPER_BOUNDARY [nM]>
77186063.774070

> <BIOSOLVEIT.HYDE_LIGAND_EFFICIENCY range: ++, +, 0, -, -->
--

> <BIOSOLVEIT.HYDE_LIGAND_LIPOPHILIC_EFFICIENCY range: ++, +, 0, -, -->
--

> <BIOSOLVEIT.INTER_CLASH range: red, yellow, green>
green

> <BIOSOLVEIT.INTRA_CLASH range: red, yellow, green>
yellow

> <BIOSOLVEIT.LOGP>
3.37794

> <BIOSOLVEIT.MOLECULAR WEIGHT>
378.261

> <BIOSOLVEIT.MOLECULE_CHECKSUM>
LTEyLjA0OTk7MC40ODE5OTg=

> <BIOSOLVEIT.TORSION_QUALITY range: red, yellow, green, not rotatable>
yellow

> <BIOSOLVEIT.TPSA>
75.6

> <BIOSOLVEIT.SEESAR_FAVORITE>
favorite

> <smc_score>
0.625

> <QED_score>
0.715

> <distance>
0.743

> <SimilarityPheSA_1>
0.661

> <Smiles>
Cc1cc(CC(=O)NCc2cc(Cl)c(Cl)cc2-n2ccnc2C)[nH]n1

> <Similarity_SkelSpheres>
0.579

> <Cluster No>
148.0

> <QueryID>
PET-UNK-3c72d439-1

> <SimilarityPheSA>
0.6605

> <Postera series>
3-aminopyridine-like

> <PDB_code>
Mpro-x11810

> <Approach>
DGM_exploratory_RL

> <ID>
20210628_361

> <SimilarityPheSA_2>
0.67

> <OPTIBRIUM.logD>
3.27013

> <OPTIBRIUM.BBB category>
-

> <OPTIBRIUM.logP>
3.27013

> <OPTIBRIUM.P-gp category>
no

> <OPTIBRIUM.logS>
1.55295

> <OPTIBRIUM.HIA category>
+

> <OPTIBRIUM.PPB90 category>
high

> <OPTIBRIUM.2D6 affinity category>
medium

> <OPTIBRIUM.hERG pIC50>
4.01942

> <OPTIBRIUM.2C9 pKi>
5.44021

> <OPTIBRIUM.BBB log([brain]:[blood])>
-0.542259

> <OPTIBRIUM.logS @ pH7.4>
1.55295

$$$$
Compound 1604_1_05
haSeeSAR  07122114383D 1   1.00000     0.00000     0
SeeSAR 11.0.2 hazemaj
 39 41  0  0  0  0            999 V2000
    8.4781    1.3552   24.7430 Cl  0  0  0  0  0  0  0  0  0  0  0  0
    9.5235    0.0254   24.1884 C   0  0  0  0  0  0  0  0  0  0  0  0
   10.8552    0.2738   23.8714 C   0  0  0  0  0  0  0  0  0  0  0  0
    9.0088   -1.2618   24.0724 C   0  0  0  0  0  0  0  0  0  0  0  0
   11.4175    1.6804   23.9985 C   0  0  0  0  0  0  0  0  0  0  0  0
   11.6639   -0.7714   23.4389 C   0  0  0  0  0  0  0  0  0  0  0  0
    9.8224   -2.3040   23.6397 C   0  0  0  0  0  0  0  0  0  0  0  0
    7.5540   -1.5328   24.4195 C   0  0  0  0  0  0  0  0  0  0  0  0
   11.8391    2.7353   24.0939 N   0  0  0  0  0  0  0  0  0  0  0  0
   12.9367   -0.5283   23.1362 F   0  0  0  0  0  0  0  0  0  0  0  0
   11.1547   -2.0607   23.3210 C   0  0  0  0  0  0  0  0  0  0  0  0
    6.7264   -1.5640   23.1449 C   0  0  0  0  0  0  0  0  0  0  0  0
    5.9834   -2.5185   22.9168 O   0  0  0  0  0  0  0  0  0  0  0  0
    6.8045   -0.5652   22.2808 N   0  0  0  0  0  0  0  0  0  0  0  0
    6.0041   -0.5954   21.0482 C   0  0  0  0  0  0  0  0  0  0  0  0
    4.7953    0.3124   21.2068 C   0  0  0  0  0  0  0  0  0  0  0  0
    4.3714    1.0985   20.1407 C   0  0  0  0  0  0  0  0  0  0  0  0
    4.1207    0.3501   22.4221 C   0  0  0  0  0  0  0  0  0  0  0  0
    5.0516    1.0605   18.9170 N   0  0  0  0  0  0  0  0  0  0  0  0
    3.2639    1.9258   20.2956 C   0  0  0  0  0  0  0  0  0  0  0  0
    3.0132    1.1775   22.5775 C   0  0  0  0  0  0  0  0  0  0  0  0
    5.2356    2.0831   18.1060 N   0  0  0  0  0  0  0  0  0  0  0  0
    5.6249   -0.0482   18.3667 C   0  0  0  0  0  0  0  0  0  0  0  0
    2.8554    2.6792   19.2785 F   0  0  0  0  0  0  0  0  0  0  0  0
    2.5879    1.9635   21.5114 C   0  0  0  0  0  0  0  0  0  0  0  0
    5.9160    1.6655   17.0566 C   0  0  0  0  0  0  0  0  0  0  0  0
    6.1519    0.3295   17.2214 N   0  0  0  0  0  0  0  0  0  0  0  0
    1.1725    3.0272   21.6930 Cl  0  0  0  0  0  0  0  0  0  0  0  0
    9.4495   -3.2283   23.5576 H   0  0  0  0  0  0  0  0  0  0  0  0
    7.2142   -0.8089   25.0199 H   0  0  0  0  0  0  0  0  0  0  0  0
    7.4812   -2.4143   24.8858 H   0  0  0  0  0  0  0  0  0  0  0  0
   11.7422   -2.8075   23.0094 H   0  0  0  0  0  0  0  0  0  0  0  0
    7.4082    0.2102   22.4661 H   0  0  0  0  0  0  0  0  0  0  0  0
    5.6977   -1.5309   20.8726 H   0  0  0  0  0  0  0  0  0  0  0  0
    6.5613   -0.2775   20.2811 H   0  0  0  0  0  0  0  0  0  0  0  0
    4.4317   -0.2175   23.1843 H   0  0  0  0  0  0  0  0  0  0  0  0
    2.5258    1.2069   23.4501 H   0  0  0  0  0  0  0  0  0  0  0  0
    5.6414   -0.9686   18.7573 H   0  0  0  0  0  0  0  0  0  0  0  0
    6.2069    2.2252   16.2806 H   0  0  0  0  0  0  0  0  0  0  0  0
  1  2  1  0  0  0  0
  2  3  2  0  0  0  0
  2  4  1  0  0  0  0
  3  5  1  0  0  0  0
  3  6  1  0  0  0  0
  4  7  2  0  0  0  0
  4  8  1  0  0  0  0
  5  9  3  0  0  0  0
  6 10  1  0  0  0  0
  6 11  2  0  0  0  0
  8 12  1  0  0  0  0
 12 13  2  0  0  0  0
 12 14  1  0  0  0  0
 14 15  1  0  0  0  0
 15 16  1  0  0  0  0
 16 17  2  0  0  0  0
 16 18  1  0  0  0  0
 17 19  1  0  0  0  0
 17 20  1  0  0  0  0
 18 21  2  0  0  0  0
 19 22  1  0  0  0  0
 19 23  1  0  0  0  0
 20 24  1  0  0  0  0
 20 25  2  0  0  0  0
 22 26  2  0  0  0  0
 23 27  2  0  0  0  0
 25 28  1  0  0  0  0
  7 11  1  0  0  0  0
 21 25  1  0  0  0  0
 26 27  1  0  0  0  0
  7 29  1  0  0  0  0
  8 30  1  0  0  0  0
  8 31  1  0  0  0  0
 11 32  1  0  0  0  0
 14 33  1  0  0  0  0
 15 34  1  0  0  0  0
 15 35  1  0  0  0  0
 18 36  1  0  0  0  0
 21 37  1  0  0  0  0
 23 38  1  0  0  0  0
 26 39  1  0  0  0  0
M  END
> <BIOSOLVEIT.HYDE_ESTIMATED_AFFINITY_LOWER_BOUNDARY [nM]>
1009993.859747

> <BIOSOLVEIT.HYDE_ESTIMATED_AFFINITY_UPPER_BOUNDARY [nM]>
100348861.522144

> <BIOSOLVEIT.HYDE_LIGAND_EFFICIENCY range: ++, +, 0, -, -->
--

> <BIOSOLVEIT.HYDE_LIGAND_LIPOPHILIC_EFFICIENCY range: ++, +, 0, -, -->
--

> <BIOSOLVEIT.INTER_CLASH range: red, yellow, green>
green

> <BIOSOLVEIT.INTRA_CLASH range: red, yellow, green>
red

> <BIOSOLVEIT.LOGP>
3.58288

> <BIOSOLVEIT.MOLECULAR WEIGHT>
422.221

> <BIOSOLVEIT.MOLECULE_CHECKSUM>
LTExLjM5OTQ7MC40MDcxMjE=

> <BIOSOLVEIT.TORSION_QUALITY range: red, yellow, green, not rotatable>
yellow

> <BIOSOLVEIT.TPSA>
83.6

> <BIOSOLVEIT.SEESAR_FAVORITE>
favorite

> <smc_score>
0.875

> <QED_score>
0.682

> <distance>
0.708

> <SimilarityPheSA_1>
0.708

> <Smiles>
N#Cc1c(F)ccc(CC(=O)NCc2ccc(Cl)c(F)c2-n2cncn2)c1Cl

> <Similarity_SkelSpheres>
0.59

> <Cluster No>
402.0

> <QueryID>
ADA-UCB-6c2cb422-1

> <SimilarityPheSA>
0.708

> <Postera series>
3-aminopyridine-like

> <PDB_code>
Mpro-x10959

> <Approach>
DGM_exploratory_RL

> <ID>
20210628_874

> <SimilarityPheSA_2>
0.708

> <OPTIBRIUM.logD>
3.11154

> <OPTIBRIUM.BBB category>
-

> <OPTIBRIUM.logP>
3.11154

> <OPTIBRIUM.P-gp category>
no

> <OPTIBRIUM.logS>
0.222349

> <OPTIBRIUM.HIA category>
+

> <OPTIBRIUM.PPB90 category>
high

> <OPTIBRIUM.2D6 affinity category>
medium

> <OPTIBRIUM.hERG pIC50>
4.91815

> <OPTIBRIUM.2C9 pKi>
5.52888

> <OPTIBRIUM.BBB log([brain]:[blood])>
-0.482589

> <OPTIBRIUM.logS @ pH7.4>
0.222349

$$$$
Compound 1310_1_1
haSeeSAR  07122114383D 1   1.00000     0.00000     0
SeeSAR 11.0.2 hazemaj
 37 38  0  0  0  0            999 V2000
   10.2862    2.0265   24.8708 Cl  0  0  0  0  0  0  0  0  0  0  0  0
   10.7521    0.6411   23.8546 C   0  0  0  0  0  0  0  0  0  0  0  0
    9.9315   -0.4807   23.7888 C   0  0  0  0  0  0  0  0  0  0  0  0
   11.9343    0.6688   23.1223 C   0  0  0  0  0  0  0  0  0  0  0  0
    8.7813   -0.5179   24.4950 O   0  0  0  0  0  0  0  0  0  0  0  0
   10.2958   -1.5641   22.9939 C   0  0  0  0  0  0  0  0  0  0  0  0
   12.9832    2.1039   23.2083 Cl  0  0  0  0  0  0  0  0  0  0  0  0
   12.3083   -0.4081   22.3257 C   0  0  0  0  0  0  0  0  0  0  0  0
    7.6557    0.2298   24.0588 C   0  0  0  0  0  0  0  0  0  0  0  0
   11.4808   -1.5243   22.2663 C   0  0  0  0  0  0  0  0  0  0  0  0
    9.3998   -2.7899   22.9211 C   0  0  0  0  0  0  0  0  0  0  0  0
    8.4982   -2.6533   21.8326 O   0  0  0  0  0  0  0  0  0  0  0  0
    7.1779   -2.4897   22.3292 C   0  0  0  0  0  0  0  0  0  0  0  0
    6.2850   -1.9468   21.2253 C   0  0  0  0  0  0  0  0  0  0  0  0
    5.2759   -2.5664   20.8893 O   0  0  0  0  0  0  0  0  0  0  0  0
    6.5926   -0.8082   20.6257 N   0  0  0  0  0  0  0  0  0  0  0  0
    5.7286   -0.2830   19.5577 C   0  0  2  0  0  0  0  0  0  0  0  0
    6.5481    0.2434   18.4077 C   0  0  0  0  0  0  0  0  0  0  0  0
    5.0217    0.9813   20.0028 C   0  0  0  0  0  0  0  0  0  0  0  0
    7.5847   -0.2415   17.9905 O   0  0  0  0  0  0  0  0  0  0  0  0
    5.9532    1.3527   17.9389 O   0  0  0  0  0  0  0  0  0  0  0  0
    4.7656    1.6240   18.6531 C   0  0  0  0  0  0  0  0  0  0  0  0
   13.1602   -0.3803   21.8028 H   0  0  0  0  0  0  0  0  0  0  0  0
    6.8956    0.0886   24.6930 H   0  0  0  0  0  0  0  0  0  0  0  0
    7.8912    1.2013   24.0317 H   0  0  0  0  0  0  0  0  0  0  0  0
    7.3877   -0.0739   23.1445 H   0  0  0  0  0  0  0  0  0  0  0  0
   11.7396   -2.3042   21.6964 H   0  0  0  0  0  0  0  0  0  0  0  0
    8.8832   -2.8763   23.7730 H   0  0  0  0  0  0  0  0  0  0  0  0
    9.9618   -3.6062   22.7879 H   0  0  0  0  0  0  0  0  0  0  0  0
    7.1874   -1.8481   23.0961 H   0  0  0  0  0  0  0  0  0  0  0  0
    6.8261   -3.3734   22.6381 H   0  0  0  0  0  0  0  0  0  0  0  0
    7.4123   -0.3049   20.8987 H   0  0  0  0  0  0  0  0  0  0  0  0
    5.0745   -0.9736   19.2492 H   0  0  0  0  0  0  0  0  0  0  0  0
    5.6066    1.5504   20.5806 H   0  0  0  0  0  0  0  0  0  0  0  0
    4.1698    0.7802   20.4865 H   0  0  0  0  0  0  0  0  0  0  0  0
    4.6199    2.6090   18.7464 H   0  0  0  0  0  0  0  0  0  0  0  0
    3.9738    1.2111   18.2033 H   0  0  0  0  0  0  0  0  0  0  0  0
  1  2  1  0  0  0  0
  2  3  2  0  0  0  0
  2  4  1  0  0  0  0
  3  5  1  0  0  0  0
  3  6  1  0  0  0  0
  4  7  1  0  0  0  0
  4  8  2  0  0  0  0
  5  9  1  0  0  0  0
  6 10  2  0  0  0  0
  6 11  1  0  0  0  0
 11 12  1  0  0  0  0
 12 13  1  0  0  0  0
 13 14  1  0  0  0  0
 14 15  2  0  0  0  0
 14 16  1  0  0  0  0
 16 17  1  0  0  0  0
 17 18  1  0  0  0  0
 17 19  1  0  0  0  0
 18 20  2  0  0  0  0
 18 21  1  0  0  0  0
 19 22  1  0  0  0  0
  8 10  1  0  0  0  0
 21 22  1  0  0  0  0
  8 23  1  0  0  0  0
  9 24  1  0  0  0  0
  9 25  1  0  0  0  0
  9 26  1  0  0  0  0
 10 27  1  0  0  0  0
 11 28  1  0  0  0  0
 11 29  1  0  0  0  0
 13 30  1  0  0  0  0
 13 31  1  0  0  0  0
 16 32  1  0  0  0  0
 17 33  1  0  0  0  0
 19 34  1  0  0  0  0
 19 35  1  0  0  0  0
 22 36  1  0  0  0  0
 22 37  1  0  0  0  0
M  END
> <BIOSOLVEIT.HYDE_ESTIMATED_AFFINITY_LOWER_BOUNDARY [nM]>
1079990.201676

> <BIOSOLVEIT.HYDE_ESTIMATED_AFFINITY_UPPER_BOUNDARY [nM]>
107303411.943939

> <BIOSOLVEIT.HYDE_LIGAND_EFFICIENCY range: ++, +, 0, -, -->
--

> <BIOSOLVEIT.HYDE_LIGAND_LIPOPHILIC_EFFICIENCY range: ++, +, 0, -, -->
--

> <BIOSOLVEIT.INTER_CLASH range: red, yellow, green>
green

> <BIOSOLVEIT.INTRA_CLASH range: red, yellow, green>
green

> <BIOSOLVEIT.LOGP>
1.9503

> <BIOSOLVEIT.MOLECULAR WEIGHT>
348.181

> <BIOSOLVEIT.MOLECULE_CHECKSUM>
LTExLjIzMzM7MC41MTA2MDM=

> <BIOSOLVEIT.TORSION_QUALITY range: red, yellow, green, not rotatable>
red

> <BIOSOLVEIT.TPSA>
73.86

> <BIOSOLVEIT.SEESAR_FAVORITE>
favorite

> <smc_score>
0.563

> <QED_score>
0.796

> <distance>
0.703

> <SimilarityPheSA_1>
0.699

> <Smiles>
COc1c(COCC(=O)NC2CCOC2=O)ccc(Cl)c1Cl

> <Similarity_SkelSpheres>
0.613

> <Cluster No>
243.0

> <QueryID>
JAG-UCB-a3ef7265-20

> <SimilarityPheSA>
0.6986

> <Postera series>
3-aminopyridine-like

> <PDB_code>
Mpro-x10324

> <Approach>
DGM_exploratory_RL

> <ID>
20210628_580

> <SimilarityPheSA_2>
0.647

> <OPTIBRIUM.logD>
2.12933

> <OPTIBRIUM.BBB category>
-

> <OPTIBRIUM.logP>
2.12933

> <OPTIBRIUM.P-gp category>
no

> <OPTIBRIUM.logS>
2.77645

> <OPTIBRIUM.HIA category>
+

> <OPTIBRIUM.PPB90 category>
low

> <OPTIBRIUM.2D6 affinity category>
low

> <OPTIBRIUM.hERG pIC50>
3.82529

> <OPTIBRIUM.2C9 pKi>
4.49134

> <OPTIBRIUM.BBB log([brain]:[blood])>
-0.28124

> <OPTIBRIUM.logS @ pH7.4>
2.77645

$$$$
Compound 1499_1_02
haSeeSAR  07122114383D 1   1.00000     0.00000     0
SeeSAR 11.0.2 hazemaj
 42 45  0  0  0  0            999 V2000
    1.4584    2.3730   22.2517 Cl  0  0  0  0  0  0  0  0  0  0  0  0
    2.9625    1.4826   21.9162 C   0  0  0  0  0  0  0  0  0  0  0  0
    3.5757    0.7577   22.9324 C   0  0  0  0  0  0  0  0  0  0  0  0
    3.5139    1.5182   20.6397 C   0  0  0  0  0  0  0  0  0  0  0  0
    2.8556    0.7231   24.5596 Cl  0  0  0  0  0  0  0  0  0  0  0  0
    4.7517    0.0572   22.6855 C   0  0  0  0  0  0  0  0  0  0  0  0
    4.6901    0.8171   20.3958 C   0  0  0  0  0  0  0  0  0  0  0  0
    5.3059    0.0910   21.4102 C   0  0  0  0  0  0  0  0  0  0  0  0
    5.2443    0.8537   19.1108 N   0  0  0  0  0  0  0  0  0  0  0  0
    6.5911   -0.6746   21.1406 C   0  0  0  0  0  0  0  0  0  0  0  0
    5.2094    1.8810   18.2857 N   0  0  0  0  0  0  0  0  0  0  0  0
    5.9026   -0.1765   18.5054 C   0  0  0  0  0  0  0  0  0  0  0  0
    7.1954   -1.0825   22.4170 N   0  0  0  0  0  0  0  0  0  0  0  0
    5.8321    1.5436   17.1735 C   0  0  0  0  0  0  0  0  0  0  0  0
    6.2587    0.2529   17.3133 N   0  0  0  0  0  0  0  0  0  0  0  0
    6.7928   -2.1918   23.0150 C   0  0  0  0  0  0  0  0  0  0  0  0
    5.9120   -2.8825   22.5024 O   0  0  0  0  0  0  0  0  0  0  0  0
    7.4173   -2.6134   24.3345 C   0  0  1  0  0  0  0  0  0  0  0  0
    6.3796   -3.1187   25.3272 C   0  0  0  0  0  0  0  0  0  0  0  0
    8.4049   -3.7447   24.0926 C   0  0  0  0  0  0  0  0  0  0  0  0
    7.0495   -3.4022   26.5494 O   0  0  0  0  0  0  0  0  0  0  0  0
    8.8965   -4.3015   25.4138 C   0  0  0  0  0  0  0  0  0  0  0  0
    8.1844   -4.1294   26.5949 C   0  0  0  0  0  0  0  0  0  0  0  0
   10.0848   -5.0180   25.4023 C   0  0  0  0  0  0  0  0  0  0  0  0
    8.6471   -4.6905   27.7224 N   0  0  0  0  0  0  0  0  0  0  0  0
   10.5431   -5.5772   26.5900 C   0  0  0  0  0  0  0  0  0  0  0  0
    9.7903   -5.3927   27.7458 C   0  0  0  0  0  0  0  0  0  0  0  0
    3.0720    2.0392   19.9095 H   0  0  0  0  0  0  0  0  0  0  0  0
    5.1932   -0.4643   23.4156 H   0  0  0  0  0  0  0  0  0  0  0  0
    7.2296   -0.0888   20.6416 H   0  0  0  0  0  0  0  0  0  0  0  0
    6.3869   -1.4866   20.5939 H   0  0  0  0  0  0  0  0  0  0  0  0
    6.0802   -1.0815   18.8919 H   0  0  0  0  0  0  0  0  0  0  0  0
    7.9108   -0.5214   22.8334 H   0  0  0  0  0  0  0  0  0  0  0  0
    5.9676    2.1268   16.3725 H   0  0  0  0  0  0  0  0  0  0  0  0
    7.9013   -1.8343   24.7328 H   0  0  0  0  0  0  0  0  0  0  0  0
    5.9481   -3.9493   24.9752 H   0  0  0  0  0  0  0  0  0  0  0  0
    5.6819   -2.4181   25.4762 H   0  0  0  0  0  0  0  0  0  0  0  0
    9.1837   -3.3974   23.5702 H   0  0  0  0  0  0  0  0  0  0  0  0
    7.9539   -4.4718   23.5750 H   0  0  0  0  0  0  0  0  0  0  0  0
   10.6028   -5.1302   24.5543 H   0  0  0  0  0  0  0  0  0  0  0  0
   11.3949   -6.1005   26.6131 H   0  0  0  0  0  0  0  0  0  0  0  0
   10.1063   -5.7899   28.6075 H   0  0  0  0  0  0  0  0  0  0  0  0
  1  2  1  0  0  0  0
  2  3  2  0  0  0  0
  2  4  1  0  0  0  0
  3  5  1  0  0  0  0
  3  6  1  0  0  0  0
  4  7  2  0  0  0  0
  6  8  2  0  0  0  0
  7  9  1  0  0  0  0
  8 10  1  0  0  0  0
  9 11  1  0  0  0  0
  9 12  1  0  0  0  0
 10 13  1  0  0  0  0
 11 14  2  0  0  0  0
 12 15  2  0  0  0  0
 13 16  1  0  0  0  0
 16 17  2  0  0  0  0
 16 18  1  0  0  0  0
 18 19  1  0  0  0  0
 18 20  1  0  0  0  0
 19 21  1  0  0  0  0
 20 22  1  0  0  0  0
 21 23  1  0  0  0  0
 22 24  1  0  0  0  0
 23 25  1  0  0  0  0
 24 26  2  0  0  0  0
 25 27  2  0  0  0  0
  7  8  1  0  0  0  0
 14 15  1  0  0  0  0
 22 23  2  0  0  0  0
 26 27  1  0  0  0  0
  4 28  1  0  0  0  0
  6 29  1  0  0  0  0
 10 30  1  0  0  0  0
 10 31  1  0  0  0  0
 12 32  1  0  0  0  0
 13 33  1  0  0  0  0
 14 34  1  0  0  0  0
 18 35  1  0  0  0  0
 19 36  1  0  0  0  0
 19 37  1  0  0  0  0
 20 38  1  0  0  0  0
 20 39  1  0  0  0  0
 24 40  1  0  0  0  0
 26 41  1  0  0  0  0
 27 42  1  0  0  0  0
M  END
> <BIOSOLVEIT.HYDE_ESTIMATED_AFFINITY_LOWER_BOUNDARY [nM]>
3304352.100835

> <BIOSOLVEIT.HYDE_ESTIMATED_AFFINITY_UPPER_BOUNDARY [nM]>
328306918.093746

> <BIOSOLVEIT.HYDE_LIGAND_EFFICIENCY range: ++, +, 0, -, -->
--

> <BIOSOLVEIT.HYDE_LIGAND_LIPOPHILIC_EFFICIENCY range: ++, +, 0, -, -->
--

> <BIOSOLVEIT.INTER_CLASH range: red, yellow, green>
green

> <BIOSOLVEIT.INTRA_CLASH range: red, yellow, green>
red

> <BIOSOLVEIT.LOGP>
2.8366

> <BIOSOLVEIT.MOLECULAR WEIGHT>
404.256

> <BIOSOLVEIT.MOLECULE_CHECKSUM>
LTguNDYxMDg7MC4zMTMzNzM=

> <BIOSOLVEIT.TORSION_QUALITY range: red, yellow, green, not rotatable>
green

> <BIOSOLVEIT.TPSA>
81.93

> <BIOSOLVEIT.SEESAR_FAVORITE>
favorite

> <smc_score>
0.688

> <QED_score>
0.723

> <distance>
0.722

> <SimilarityPheSA_1>
0.638

> <Smiles>
O=C(NCc1cc(Cl)c(Cl)cc1-n1cncn1)C1COc2ncccc2C1

> <Similarity_SkelSpheres>
0.673

> <Cluster No>
340.0

> <QueryID>
MAT-POS-bb423b95-1

> <SimilarityPheSA>
0.6383

> <Postera series>
3-aminopyridine-like

> <PDB_code>
Mpro-x11542

> <Approach>
DGM_exploratory_RL

> <ID>
20210628_769

> <SimilarityPheSA_2>
0.669

> <OPTIBRIUM.logD>
2.00917

> <OPTIBRIUM.BBB category>
-

> <OPTIBRIUM.logP>
2.00917

> <OPTIBRIUM.P-gp category>
no

> <OPTIBRIUM.logS>
1.44986

> <OPTIBRIUM.HIA category>
+

> <OPTIBRIUM.PPB90 category>
high

> <OPTIBRIUM.2D6 affinity category>
high

> <OPTIBRIUM.hERG pIC50>
4.44074

> <OPTIBRIUM.2C9 pKi>
5.33378

> <OPTIBRIUM.BBB log([brain]:[blood])>
-0.659436

> <OPTIBRIUM.logS @ pH7.4>
1.44986

$$$$
Compound 1499_1_05
haSeeSAR  07122114383D 1   1.00000     0.00000     0
SeeSAR 11.0.2 hazemaj
 42 45  0  0  0  0            999 V2000
    1.7121    2.2442   22.5363 Cl  0  0  0  0  0  0  0  0  0  0  0  0
    3.1773    1.3350   22.0954 C   0  0  0  0  0  0  0  0  0  0  0  0
    3.8167    0.5527   23.0512 C   0  0  0  0  0  0  0  0  0  0  0  0
    3.6721    1.4131   20.7979 C   0  0  0  0  0  0  0  0  0  0  0  0
    3.1689    0.4643   24.7064 Cl  0  0  0  0  0  0  0  0  0  0  0  0
    4.9627   -0.1632   22.7217 C   0  0  0  0  0  0  0  0  0  0  0  0
    4.8185    0.6964   20.4714 C   0  0  0  0  0  0  0  0  0  0  0  0
    5.4604   -0.0868   21.4252 C   0  0  0  0  0  0  0  0  0  0  0  0
    5.3159    0.7760   19.1651 N   0  0  0  0  0  0  0  0  0  0  0  0
    6.7130   -0.8694   21.0653 C   0  0  0  0  0  0  0  0  0  0  0  0
    5.2508    1.8320   18.3790 N   0  0  0  0  0  0  0  0  0  0  0  0
    5.9408   -0.2350   18.4955 C   0  0  0  0  0  0  0  0  0  0  0  0
    7.3900   -1.3033   22.2959 N   0  0  0  0  0  0  0  0  0  0  0  0
    5.8219    1.5314   17.2292 C   0  0  0  0  0  0  0  0  0  0  0  0
    6.2466    0.2347   17.3047 N   0  0  0  0  0  0  0  0  0  0  0  0
    6.9999   -2.4075   22.9114 C   0  0  0  0  0  0  0  0  0  0  0  0
    6.0700   -3.0716   22.4536 O   0  0  0  0  0  0  0  0  0  0  0  0
    7.6997   -2.8560   24.1834 C   0  0  1  0  0  0  0  0  0  0  0  0
    9.2133   -2.7299   24.0365 C   0  0  0  0  0  0  0  0  0  0  0  0
    7.1439   -2.1300   25.4028 C   0  0  0  0  0  0  0  0  0  0  0  0
    9.7817   -1.6583   24.7852 O   0  0  0  0  0  0  0  0  0  0  0  0
    7.7386   -0.7322   25.4879 C   0  0  0  0  0  0  0  0  0  0  0  0
    9.0790   -0.5621   25.1597 C   0  0  0  0  0  0  0  0  0  0  0  0
    6.9848    0.3729   25.8753 C   0  0  0  0  0  0  0  0  0  0  0  0
    9.6193    0.6694   25.2193 N   0  0  0  0  0  0  0  0  0  0  0  0
    7.5683    1.6346   25.9199 C   0  0  0  0  0  0  0  0  0  0  0  0
    8.9121    1.7509   25.5805 C   0  0  0  0  0  0  0  0  0  0  0  0
    3.2114    1.9753   20.1111 H   0  0  0  0  0  0  0  0  0  0  0  0
    5.4231   -0.7258   23.4085 H   0  0  0  0  0  0  0  0  0  0  0  0
    7.3284   -0.2874   20.5337 H   0  0  0  0  0  0  0  0  0  0  0  0
    6.4610   -1.6710   20.5232 H   0  0  0  0  0  0  0  0  0  0  0  0
    6.1298   -1.1538   18.8420 H   0  0  0  0  0  0  0  0  0  0  0  0
    8.1454   -0.7638   22.6678 H   0  0  0  0  0  0  0  0  0  0  0  0
    5.9255    2.1419   16.4440 H   0  0  0  0  0  0  0  0  0  0  0  0
    7.4966   -3.8279   24.3028 H   0  0  0  0  0  0  0  0  0  0  0  0
    9.4243   -2.5846   23.0699 H   0  0  0  0  0  0  0  0  0  0  0  0
    9.6313   -3.5847   24.3441 H   0  0  0  0  0  0  0  0  0  0  0  0
    7.3791   -2.6415   26.2293 H   0  0  0  0  0  0  0  0  0  0  0  0
    6.1492   -2.0631   25.3241 H   0  0  0  0  0  0  0  0  0  0  0  0
    6.0223    0.2591   26.1216 H   0  0  0  0  0  0  0  0  0  0  0  0
    7.0357    2.4371   26.1890 H   0  0  0  0  0  0  0  0  0  0  0  0
    9.3547    2.6473   25.6059 H   0  0  0  0  0  0  0  0  0  0  0  0
  1  2  1  0  0  0  0
  2  3  2  0  0  0  0
  2  4  1  0  0  0  0
  3  5  1  0  0  0  0
  3  6  1  0  0  0  0
  4  7  2  0  0  0  0
  6  8  2  0  0  0  0
  7  9  1  0  0  0  0
  8 10  1  0  0  0  0
  9 11  1  0  0  0  0
  9 12  1  0  0  0  0
 10 13  1  0  0  0  0
 11 14  2  0  0  0  0
 12 15  2  0  0  0  0
 13 16  1  0  0  0  0
 16 17  2  0  0  0  0
 16 18  1  0  0  0  0
 18 19  1  0  0  0  0
 18 20  1  0  0  0  0
 19 21  1  0  0  0  0
 20 22  1  0  0  0  0
 21 23  1  0  0  0  0
 22 24  1  0  0  0  0
 23 25  1  0  0  0  0
 24 26  2  0  0  0  0
 25 27  2  0  0  0  0
  7  8  1  0  0  0  0
 14 15  1  0  0  0  0
 22 23  2  0  0  0  0
 26 27  1  0  0  0  0
  4 28  1  0  0  0  0
  6 29  1  0  0  0  0
 10 30  1  0  0  0  0
 10 31  1  0  0  0  0
 12 32  1  0  0  0  0
 13 33  1  0  0  0  0
 14 34  1  0  0  0  0
 18 35  1  0  0  0  0
 19 36  1  0  0  0  0
 19 37  1  0  0  0  0
 20 38  1  0  0  0  0
 20 39  1  0  0  0  0
 24 40  1  0  0  0  0
 26 41  1  0  0  0  0
 27 42  1  0  0  0  0
M  END
> <BIOSOLVEIT.HYDE_ESTIMATED_AFFINITY_LOWER_BOUNDARY [nM]>
5906042.007406

> <BIOSOLVEIT.HYDE_ESTIMATED_AFFINITY_UPPER_BOUNDARY [nM]>
586800192.719649

> <BIOSOLVEIT.HYDE_LIGAND_EFFICIENCY range: ++, +, 0, -, -->
--

> <BIOSOLVEIT.HYDE_LIGAND_LIPOPHILIC_EFFICIENCY range: ++, +, 0, -, -->
--

> <BIOSOLVEIT.INTER_CLASH range: red, yellow, green>
green

> <BIOSOLVEIT.INTRA_CLASH range: red, yellow, green>
red

> <BIOSOLVEIT.LOGP>
2.8366

> <BIOSOLVEIT.MOLECULAR WEIGHT>
404.256

> <BIOSOLVEIT.MOLECULE_CHECKSUM>
LTcuMDIxNDY7MC4yNjAwNTQ=

> <BIOSOLVEIT.TORSION_QUALITY range: red, yellow, green, not rotatable>
green

> <BIOSOLVEIT.TPSA>
81.93

> <BIOSOLVEIT.SEESAR_FAVORITE>
favorite

> <smc_score>
0.688

> <QED_score>
0.723

> <distance>
0.722

> <SimilarityPheSA_1>
0.638

> <Smiles>
O=C(NCc1cc(Cl)c(Cl)cc1-n1cncn1)C1COc2ncccc2C1

> <Similarity_SkelSpheres>
0.673

> <Cluster No>
340.0

> <QueryID>
MAT-POS-bb423b95-1

> <SimilarityPheSA>
0.6383

> <Postera series>
3-aminopyridine-like

> <PDB_code>
Mpro-x11542

> <Approach>
DGM_exploratory_RL

> <ID>
20210628_769

> <SimilarityPheSA_2>
0.669

> <OPTIBRIUM.logD>
2.00917

> <OPTIBRIUM.BBB category>
-

> <OPTIBRIUM.logP>
2.00917

> <OPTIBRIUM.P-gp category>
no

> <OPTIBRIUM.logS>
1.44986

> <OPTIBRIUM.HIA category>
+

> <OPTIBRIUM.PPB90 category>
high

> <OPTIBRIUM.2D6 affinity category>
high

> <OPTIBRIUM.hERG pIC50>
4.44074

> <OPTIBRIUM.2C9 pKi>
5.33378

> <OPTIBRIUM.BBB log([brain]:[blood])>
-0.659436

> <OPTIBRIUM.logS @ pH7.4>
1.44986

$$$$
Compound 1091_1_07
haSeeSAR  07122114383D 1   1.00000     0.00000     0
SeeSAR 11.0.2 hazemaj
 42 44  0  0  0  0            999 V2000
    0.6684    2.3603   21.5782 Cl  0  0  0  0  0  0  0  0  0  0  0  0
    2.3315    1.7263   21.5904 C   0  0  0  0  0  0  0  0  0  0  0  0
    2.9179    1.3528   22.7948 C   0  0  0  0  0  0  0  0  0  0  0  0
    3.0326    1.6088   20.3948 C   0  0  0  0  0  0  0  0  0  0  0  0
    2.0056    1.5095   24.3147 Cl  0  0  0  0  0  0  0  0  0  0  0  0
    4.2168    0.8559   22.8202 C   0  0  0  0  0  0  0  0  0  0  0  0
    4.3314    1.1120   20.4233 C   0  0  0  0  0  0  0  0  0  0  0  0
    4.9208    0.7376   21.6264 C   0  0  0  0  0  0  0  0  0  0  0  0
    5.0363    0.9944   19.2195 N   0  0  0  0  0  0  0  0  0  0  0  0
    6.3404    0.1946   21.6545 C   0  0  0  0  0  0  0  0  0  0  0  0
    5.6097   -0.1368   18.7276 C   0  0  0  0  0  0  0  0  0  0  0  0
    5.2704    1.9990   18.3284 C   0  0  0  0  0  0  0  0  0  0  0  0
    6.6449   -0.3114   23.0007 N   0  0  0  0  0  0  0  0  0  0  0  0
    6.1818    0.1340   17.5754 N   0  0  0  0  0  0  0  0  0  0  0  0
    5.5850   -1.4951   19.4084 C   0  0  0  0  0  0  0  0  0  0  0  0
    5.9859    1.4568   17.3011 C   0  0  0  0  0  0  0  0  0  0  0  0
    6.2396   -1.5182   23.3611 C   0  0  0  0  0  0  0  0  0  0  0  0
    5.6075   -2.2172   22.5692 O   0  0  0  0  0  0  0  0  0  0  0  0
    6.5545   -2.0414   24.7530 C   0  0  0  0  0  0  0  0  0  0  0  0
    5.2740   -2.5258   25.4139 C   0  0  0  0  0  0  0  0  0  0  0  0
    4.0233   -2.0240   25.1957 N   0  0  0  0  0  0  0  0  0  0  0  0
    5.1867   -3.5293   26.3243 C   0  0  0  0  0  0  0  0  0  0  0  0
    3.1674   -2.6883   25.9433 N   0  0  0  0  0  0  0  0  0  0  0  0
    3.8118   -3.5965   26.6371 C   0  0  0  0  0  0  0  0  0  0  0  0
    3.1838   -4.5690   27.6203 C   0  0  0  0  0  0  0  0  0  0  0  0
    2.6099    1.8772   19.5292 H   0  0  0  0  0  0  0  0  0  0  0  0
    4.6392    0.5872   23.6859 H   0  0  0  0  0  0  0  0  0  0  0  0
    6.9815    0.9254   21.4202 H   0  0  0  0  0  0  0  0  0  0  0  0
    6.4260   -0.5492   20.9915 H   0  0  0  0  0  0  0  0  0  0  0  0
    4.9744    2.9506   18.4115 H   0  0  0  0  0  0  0  0  0  0  0  0
    7.1584    0.2565   23.6440 H   0  0  0  0  0  0  0  0  0  0  0  0
    6.0759   -2.1594   18.8449 H   0  0  0  0  0  0  0  0  0  0  0  0
    6.0255   -1.4273   20.3036 H   0  0  0  0  0  0  0  0  0  0  0  0
    4.6373   -1.7923   19.5249 H   0  0  0  0  0  0  0  0  0  0  0  0
    6.3100    1.9430   16.4895 H   0  0  0  0  0  0  0  0  0  0  0  0
    6.9561   -1.3082   25.3018 H   0  0  0  0  0  0  0  0  0  0  0  0
    7.2023   -2.8002   24.6853 H   0  0  0  0  0  0  0  0  0  0  0  0
    5.9278   -4.0925   26.6900 H   0  0  0  0  0  0  0  0  0  0  0  0
    2.1972   -4.4114   27.6611 H   0  0  0  0  0  0  0  0  0  0  0  0
    3.3595   -5.5065   27.3200 H   0  0  0  0  0  0  0  0  0  0  0  0
    3.5815   -4.4295   28.5272 H   0  0  0  0  0  0  0  0  0  0  0  0
    2.1812   -2.5264   25.9771 H   0  0  0  0  0  0  0  0  0  0  0  0
  1  2  1  0  0  0  0
  2  3  2  0  0  0  0
  2  4  1  0  0  0  0
  3  5  1  0  0  0  0
  3  6  1  0  0  0  0
  4  7  2  0  0  0  0
  6  8  2  0  0  0  0
  7  9  1  0  0  0  0
  8 10  1  0  0  0  0
  9 11  1  0  0  0  0
  9 12  1  0  0  0  0
 10 13  1  0  0  0  0
 11 14  2  0  0  0  0
 11 15  1  0  0  0  0
 12 16  2  0  0  0  0
 13 17  1  0  0  0  0
 17 18  2  0  0  0  0
 17 19  1  0  0  0  0
 19 20  1  0  0  0  0
 20 21  2  0  0  0  0
 20 22  1  0  0  0  0
 21 23  1  0  0  0  0
 22 24  2  0  0  0  0
 24 25  1  0  0  0  0
  7  8  1  0  0  0  0
 14 16  1  0  0  0  0
 23 24  1  0  0  0  0
  4 26  1  0  0  0  0
  6 27  1  0  0  0  0
 10 28  1  0  0  0  0
 10 29  1  0  0  0  0
 12 30  1  0  0  0  0
 13 31  1  0  0  0  0
 15 32  1  0  0  0  0
 15 33  1  0  0  0  0
 15 34  1  0  0  0  0
 16 35  1  0  0  0  0
 19 36  1  0  0  0  0
 19 37  1  0  0  0  0
 25 41  1  0  0  0  0
 22 38  1  0  0  0  0
 25 39  1  0  0  0  0
 25 40  1  0  0  0  0
 23 42  1  0  0  0  0
M  END
> <BIOSOLVEIT.HYDE_ESTIMATED_AFFINITY_LOWER_BOUNDARY [nM]>
6696028.090131

> <BIOSOLVEIT.HYDE_ESTIMATED_AFFINITY_UPPER_BOUNDARY [nM]>
665289980.805794

> <BIOSOLVEIT.HYDE_LIGAND_EFFICIENCY range: ++, +, 0, -, -->
--

> <BIOSOLVEIT.HYDE_LIGAND_LIPOPHILIC_EFFICIENCY range: ++, +, 0, -, -->
--

> <BIOSOLVEIT.INTER_CLASH range: red, yellow, green>
green

> <BIOSOLVEIT.INTRA_CLASH range: red, yellow, green>
yellow

> <BIOSOLVEIT.LOGP>
3.37794

> <BIOSOLVEIT.MOLECULAR WEIGHT>
378.261

> <BIOSOLVEIT.MOLECULE_CHECKSUM>
LTYuNzEwMjU7MC4yNjg0MQ==

> <BIOSOLVEIT.TORSION_QUALITY range: red, yellow, green, not rotatable>
yellow

> <BIOSOLVEIT.TPSA>
75.6

> <BIOSOLVEIT.SEESAR_FAVORITE>
favorite

> <smc_score>
0.625

> <QED_score>
0.715

> <distance>
0.743

> <SimilarityPheSA_1>
0.661

> <Smiles>
Cc1cc(CC(=O)NCc2cc(Cl)c(Cl)cc2-n2ccnc2C)[nH]n1

> <Similarity_SkelSpheres>
0.579

> <Cluster No>
148.0

> <QueryID>
PET-UNK-3c72d439-1

> <SimilarityPheSA>
0.6605

> <Postera series>
3-aminopyridine-like

> <PDB_code>
Mpro-x11810

> <Approach>
DGM_exploratory_RL

> <ID>
20210628_361

> <SimilarityPheSA_2>
0.67

> <OPTIBRIUM.logD>
3.27013

> <OPTIBRIUM.BBB category>
-

> <OPTIBRIUM.logP>
3.27013

> <OPTIBRIUM.P-gp category>
no

> <OPTIBRIUM.logS>
1.55295

> <OPTIBRIUM.HIA category>
+

> <OPTIBRIUM.PPB90 category>
high

> <OPTIBRIUM.2D6 affinity category>
medium

> <OPTIBRIUM.hERG pIC50>
4.01942

> <OPTIBRIUM.2C9 pKi>
5.44021

> <OPTIBRIUM.BBB log([brain]:[blood])>
-0.542259

> <OPTIBRIUM.logS @ pH7.4>
1.55295

$$$$
Compound 1091_1_10
haSeeSAR  07122114383D 1   1.00000     0.00000     0
SeeSAR 11.0.2 hazemaj
 42 44  0  0  0  0            999 V2000
    0.5580    2.4148   21.4260 Cl  0  0  0  0  0  0  0  0  0  0  0  0
    2.2324    1.8148   21.4924 C   0  0  0  0  0  0  0  0  0  0  0  0
    2.8036    1.5006   22.7208 C   0  0  0  0  0  0  0  0  0  0  0  0
    2.9574    1.6645   20.3149 C   0  0  0  0  0  0  0  0  0  0  0  0
    1.8608    1.6987   24.2171 Cl  0  0  0  0  0  0  0  0  0  0  0  0
    4.1111    1.0309   22.7887 C   0  0  0  0  0  0  0  0  0  0  0  0
    4.2647    1.1950   20.3859 C   0  0  0  0  0  0  0  0  0  0  0  0
    4.8390    0.8798   21.6131 C   0  0  0  0  0  0  0  0  0  0  0  0
    4.9937    1.0442   19.2002 N   0  0  0  0  0  0  0  0  0  0  0  0
    6.2679    0.3666   21.6876 C   0  0  0  0  0  0  0  0  0  0  0  0
    5.5865   -0.0972   18.7573 C   0  0  0  0  0  0  0  0  0  0  0  0
    5.2359    2.0208   18.2807 C   0  0  0  0  0  0  0  0  0  0  0  0
    6.5218   -0.1837   23.0269 N   0  0  0  0  0  0  0  0  0  0  0  0
    6.1782    0.1406   17.6079 N   0  0  0  0  0  0  0  0  0  0  0  0
    5.5607   -1.4323   19.4826 C   0  0  0  0  0  0  0  0  0  0  0  0
    5.9759    1.4517   17.2859 C   0  0  0  0  0  0  0  0  0  0  0  0
    6.1077   -1.4031   23.3304 C   0  0  0  0  0  0  0  0  0  0  0  0
    5.5100   -2.0768   22.4913 O   0  0  0  0  0  0  0  0  0  0  0  0
    6.3701   -1.9721   24.7152 C   0  0  0  0  0  0  0  0  0  0  0  0
    7.3631   -3.1186   24.6121 C   0  0  0  0  0  0  0  0  0  0  0  0
    7.2397   -4.2120   23.8041 N   0  0  0  0  0  0  0  0  0  0  0  0
    8.5203   -3.2256   25.3142 C   0  0  0  0  0  0  0  0  0  0  0  0
    8.2863   -4.9894   23.9860 N   0  0  0  0  0  0  0  0  0  0  0  0
    9.0796   -4.4465   24.8786 C   0  0  0  0  0  0  0  0  0  0  0  0
   10.3926   -5.0323   25.3683 C   0  0  0  0  0  0  0  0  0  0  0  0
    2.5456    1.8902   19.4321 H   0  0  0  0  0  0  0  0  0  0  0  0
    4.5226    0.8048   23.6716 H   0  0  0  0  0  0  0  0  0  0  0  0
    6.9022    1.1192   21.5108 H   0  0  0  0  0  0  0  0  0  0  0  0
    6.4011   -0.3495   21.0023 H   0  0  0  0  0  0  0  0  0  0  0  0
    4.9300    2.9718   18.3264 H   0  0  0  0  0  0  0  0  0  0  0  0
    7.0073    0.3636   23.7085 H   0  0  0  0  0  0  0  0  0  0  0  0
    6.0683   -2.1103   18.9509 H   0  0  0  0  0  0  0  0  0  0  0  0
    5.9833   -1.3306   20.3832 H   0  0  0  0  0  0  0  0  0  0  0  0
    4.6137   -1.7345   19.5909 H   0  0  0  0  0  0  0  0  0  0  0  0
    6.3112    1.9138   16.4648 H   0  0  0  0  0  0  0  0  0  0  0  0
    5.5128   -2.3076   25.1057 H   0  0  0  0  0  0  0  0  0  0  0  0
    6.7470   -1.2567   25.3036 H   0  0  0  0  0  0  0  0  0  0  0  0
    8.8919   -2.5854   25.9865 H   0  0  0  0  0  0  0  0  0  0  0  0
   10.5628   -5.9022   24.9053 H   0  0  0  0  0  0  0  0  0  0  0  0
   11.1373   -4.3961   25.1666 H   0  0  0  0  0  0  0  0  0  0  0  0
   10.3422   -5.1843   26.3554 H   0  0  0  0  0  0  0  0  0  0  0  0
    8.4506   -5.8574   23.5173 H   0  0  0  0  0  0  0  0  0  0  0  0
  1  2  1  0  0  0  0
  2  3  2  0  0  0  0
  2  4  1  0  0  0  0
  3  5  1  0  0  0  0
  3  6  1  0  0  0  0
  4  7  2  0  0  0  0
  6  8  2  0  0  0  0
  7  9  1  0  0  0  0
  8 10  1  0  0  0  0
  9 11  1  0  0  0  0
  9 12  1  0  0  0  0
 10 13  1  0  0  0  0
 11 14  2  0  0  0  0
 11 15  1  0  0  0  0
 12 16  2  0  0  0  0
 13 17  1  0  0  0  0
 17 18  2  0  0  0  0
 17 19  1  0  0  0  0
 19 20  1  0  0  0  0
 20 21  2  0  0  0  0
 20 22  1  0  0  0  0
 21 23  1  0  0  0  0
 22 24  2  0  0  0  0
 24 25  1  0  0  0  0
  7  8  1  0  0  0  0
 14 16  1  0  0  0  0
 23 24  1  0  0  0  0
  4 26  1  0  0  0  0
  6 27  1  0  0  0  0
 10 28  1  0  0  0  0
 10 29  1  0  0  0  0
 12 30  1  0  0  0  0
 13 31  1  0  0  0  0
 15 32  1  0  0  0  0
 15 33  1  0  0  0  0
 15 34  1  0  0  0  0
 16 35  1  0  0  0  0
 19 36  1  0  0  0  0
 19 37  1  0  0  0  0
 25 41  1  0  0  0  0
 22 38  1  0  0  0  0
 25 39  1  0  0  0  0
 25 40  1  0  0  0  0
 23 42  1  0  0  0  0
M  END
> <BIOSOLVEIT.HYDE_ESTIMATED_AFFINITY_LOWER_BOUNDARY [nM]>
9352728.071043

> <BIOSOLVEIT.HYDE_ESTIMATED_AFFINITY_UPPER_BOUNDARY [nM]>
929248831.562827

> <BIOSOLVEIT.HYDE_LIGAND_EFFICIENCY range: ++, +, 0, -, -->
--

> <BIOSOLVEIT.HYDE_LIGAND_LIPOPHILIC_EFFICIENCY range: ++, +, 0, -, -->
--

> <BIOSOLVEIT.INTER_CLASH range: red, yellow, green>
green

> <BIOSOLVEIT.INTRA_CLASH range: red, yellow, green>
yellow

> <BIOSOLVEIT.LOGP>
3.37794

> <BIOSOLVEIT.MOLECULAR WEIGHT>
378.261

> <BIOSOLVEIT.MOLECULE_CHECKSUM>
LTUuODgxOTswLjIzNTI3Ng==

> <BIOSOLVEIT.TORSION_QUALITY range: red, yellow, green, not rotatable>
green

> <BIOSOLVEIT.TPSA>
75.6

> <BIOSOLVEIT.SEESAR_FAVORITE>
favorite

> <smc_score>
0.625

> <QED_score>
0.715

> <distance>
0.743

> <SimilarityPheSA_1>
0.661

> <Smiles>
Cc1cc(CC(=O)NCc2cc(Cl)c(Cl)cc2-n2ccnc2C)[nH]n1

> <Similarity_SkelSpheres>
0.579

> <Cluster No>
148.0

> <QueryID>
PET-UNK-3c72d439-1

> <SimilarityPheSA>
0.6605

> <Postera series>
3-aminopyridine-like

> <PDB_code>
Mpro-x11810

> <Approach>
DGM_exploratory_RL

> <ID>
20210628_361

> <SimilarityPheSA_2>
0.67

> <OPTIBRIUM.logD>
3.27013

> <OPTIBRIUM.BBB category>
-

> <OPTIBRIUM.logP>
3.27013

> <OPTIBRIUM.P-gp category>
no

> <OPTIBRIUM.logS>
1.55295

> <OPTIBRIUM.HIA category>
+

> <OPTIBRIUM.PPB90 category>
high

> <OPTIBRIUM.2D6 affinity category>
medium

> <OPTIBRIUM.hERG pIC50>
4.01942

> <OPTIBRIUM.2C9 pKi>
5.44021

> <OPTIBRIUM.BBB log([brain]:[blood])>
-0.542259

> <OPTIBRIUM.logS @ pH7.4>
1.55295

$$$$
Compound 1499_1_07
haSeeSAR  07122114383D 1   1.00000     0.00000     0
SeeSAR 11.0.2 hazemaj
 42 45  0  0  0  0            999 V2000
    1.6333    2.2630   22.4719 Cl  0  0  0  0  0  0  0  0  0  0  0  0
    3.1155    1.3628   22.0713 C   0  0  0  0  0  0  0  0  0  0  0  0
    3.7479    0.6053   23.0515 C   0  0  0  0  0  0  0  0  0  0  0  0
    3.6306    1.4231   20.7807 C   0  0  0  0  0  0  0  0  0  0  0  0
    3.0742    0.5392   24.6974 Cl  0  0  0  0  0  0  0  0  0  0  0  0
    4.9070   -0.1035   22.7537 C   0  0  0  0  0  0  0  0  0  0  0  0
    4.7900    0.7136   20.4859 C   0  0  0  0  0  0  0  0  0  0  0  0
    5.4249   -0.0448   21.4641 C   0  0  0  0  0  0  0  0  0  0  0  0
    5.3078    0.7753   19.1866 N   0  0  0  0  0  0  0  0  0  0  0  0
    6.6918   -0.8195   21.1388 C   0  0  0  0  0  0  0  0  0  0  0  0
    5.2528    1.8196   18.3842 N   0  0  0  0  0  0  0  0  0  0  0  0
    5.9454   -0.2438   18.5418 C   0  0  0  0  0  0  0  0  0  0  0  0
    7.3290   -1.2629   22.3871 N   0  0  0  0  0  0  0  0  0  0  0  0
    5.8426    1.5036   17.2481 C   0  0  0  0  0  0  0  0  0  0  0  0
    6.2688    0.2091   17.3492 N   0  0  0  0  0  0  0  0  0  0  0  0
    6.9207   -2.3728   22.9802 C   0  0  0  0  0  0  0  0  0  0  0  0
    6.0071   -3.0342   22.4867 O   0  0  0  0  0  0  0  0  0  0  0  0
    7.5794   -2.8313   24.2705 C   0  0  1  0  0  0  0  0  0  0  0  0
    9.0934   -2.6592   24.1910 C   0  0  0  0  0  0  0  0  0  0  0  0
    6.9518   -2.1502   25.4810 C   0  0  0  0  0  0  0  0  0  0  0  0
    9.5985   -1.5899   24.9871 O   0  0  0  0  0  0  0  0  0  0  0  0
    7.5016   -0.7386   25.6226 C   0  0  0  0  0  0  0  0  0  0  0  0
    8.8490   -0.5232   25.3556 C   0  0  0  0  0  0  0  0  0  0  0  0
    6.7003    0.3354   26.0021 C   0  0  0  0  0  0  0  0  0  0  0  0
    9.3502    0.7214   25.4658 N   0  0  0  0  0  0  0  0  0  0  0  0
    7.2444    1.6116   26.0998 C   0  0  0  0  0  0  0  0  0  0  0  0
    8.5973    1.7737   25.8207 C   0  0  0  0  0  0  0  0  0  0  0  0
    3.1748    1.9676   20.0766 H   0  0  0  0  0  0  0  0  0  0  0  0
    5.3624   -0.6483   23.4578 H   0  0  0  0  0  0  0  0  0  0  0  0
    7.3224   -0.2302   20.6337 H   0  0  0  0  0  0  0  0  0  0  0  0
    6.4611   -1.6166   20.5808 H   0  0  0  0  0  0  0  0  0  0  0  0
    6.1307   -1.1570   18.9046 H   0  0  0  0  0  0  0  0  0  0  0  0
    8.0711   -0.7257   22.7880 H   0  0  0  0  0  0  0  0  0  0  0  0
    5.9573    2.1028   16.4557 H   0  0  0  0  0  0  0  0  0  0  0  0
    7.3998   -3.8110   24.3593 H   0  0  0  0  0  0  0  0  0  0  0  0
    9.3405   -2.4853   23.2377 H   0  0  0  0  0  0  0  0  0  0  0  0
    9.5228   -3.5089   24.4970 H   0  0  0  0  0  0  0  0  0  0  0  0
    7.1671   -2.6743   26.3050 H   0  0  0  0  0  0  0  0  0  0  0  0
    5.9598   -2.1094   25.3616 H   0  0  0  0  0  0  0  0  0  0  0  0
    5.7320    0.1887   26.2047 H   0  0  0  0  0  0  0  0  0  0  0  0
    6.6778    2.3923   26.3639 H   0  0  0  0  0  0  0  0  0  0  0  0
    9.0121    2.6814   25.8849 H   0  0  0  0  0  0  0  0  0  0  0  0
  1  2  1  0  0  0  0
  2  3  2  0  0  0  0
  2  4  1  0  0  0  0
  3  5  1  0  0  0  0
  3  6  1  0  0  0  0
  4  7  2  0  0  0  0
  6  8  2  0  0  0  0
  7  9  1  0  0  0  0
  8 10  1  0  0  0  0
  9 11  1  0  0  0  0
  9 12  1  0  0  0  0
 10 13  1  0  0  0  0
 11 14  2  0  0  0  0
 12 15  2  0  0  0  0
 13 16  1  0  0  0  0
 16 17  2  0  0  0  0
 16 18  1  0  0  0  0
 18 19  1  0  0  0  0
 18 20  1  0  0  0  0
 19 21  1  0  0  0  0
 20 22  1  0  0  0  0
 21 23  1  0  0  0  0
 22 24  1  0  0  0  0
 23 25  1  0  0  0  0
 24 26  2  0  0  0  0
 25 27  2  0  0  0  0
  7  8  1  0  0  0  0
 14 15  1  0  0  0  0
 22 23  2  0  0  0  0
 26 27  1  0  0  0  0
  4 28  1  0  0  0  0
  6 29  1  0  0  0  0
 10 30  1  0  0  0  0
 10 31  1  0  0  0  0
 12 32  1  0  0  0  0
 13 33  1  0  0  0  0
 14 34  1  0  0  0  0
 18 35  1  0  0  0  0
 19 36  1  0  0  0  0
 19 37  1  0  0  0  0
 20 38  1  0  0  0  0
 20 39  1  0  0  0  0
 24 40  1  0  0  0  0
 26 41  1  0  0  0  0
 27 42  1  0  0  0  0
M  END
> <BIOSOLVEIT.HYDE_ESTIMATED_AFFINITY_LOWER_BOUNDARY [nM]>
10245322.643378

> <BIOSOLVEIT.HYDE_ESTIMATED_AFFINITY_UPPER_BOUNDARY [nM]>
1017933379.761021

> <BIOSOLVEIT.HYDE_LIGAND_EFFICIENCY range: ++, +, 0, -, -->
--

> <BIOSOLVEIT.HYDE_LIGAND_LIPOPHILIC_EFFICIENCY range: ++, +, 0, -, -->
--

> <BIOSOLVEIT.INTER_CLASH range: red, yellow, green>
green

> <BIOSOLVEIT.INTRA_CLASH range: red, yellow, green>
red

> <BIOSOLVEIT.LOGP>
2.8366

> <BIOSOLVEIT.MOLECULAR WEIGHT>
404.256

> <BIOSOLVEIT.MOLECULE_CHECKSUM>
LTUuNjU1OTQ7MC4yMDk0Nzk=

> <BIOSOLVEIT.TORSION_QUALITY range: red, yellow, green, not rotatable>
green

> <BIOSOLVEIT.TPSA>
81.93

> <BIOSOLVEIT.SEESAR_FAVORITE>
favorite

> <smc_score>
0.688

> <QED_score>
0.723

> <distance>
0.722

> <SimilarityPheSA_1>
0.638

> <Smiles>
O=C(NCc1cc(Cl)c(Cl)cc1-n1cncn1)C1COc2ncccc2C1

> <Similarity_SkelSpheres>
0.673

> <Cluster No>
340.0

> <QueryID>
MAT-POS-bb423b95-1

> <SimilarityPheSA>
0.6383

> <Postera series>
3-aminopyridine-like

> <PDB_code>
Mpro-x11542

> <Approach>
DGM_exploratory_RL

> <ID>
20210628_769

> <SimilarityPheSA_2>
0.669

> <OPTIBRIUM.logD>
2.00917

> <OPTIBRIUM.BBB category>
-

> <OPTIBRIUM.logP>
2.00917

> <OPTIBRIUM.P-gp category>
no

> <OPTIBRIUM.logS>
1.44986

> <OPTIBRIUM.HIA category>
+

> <OPTIBRIUM.PPB90 category>
high

> <OPTIBRIUM.2D6 affinity category>
high

> <OPTIBRIUM.hERG pIC50>
4.44074

> <OPTIBRIUM.2C9 pKi>
5.33378

> <OPTIBRIUM.BBB log([brain]:[blood])>
-0.659436

> <OPTIBRIUM.logS @ pH7.4>
1.44986

$$$$
Compound 1499_1_04
haSeeSAR  07122114383D 1   1.00000     0.00000     0
SeeSAR 11.0.2 hazemaj
 42 45  0  0  0  0            999 V2000
    1.2379    2.6029   21.9202 Cl  0  0  0  0  0  0  0  0  0  0  0  0
    2.7490    1.6917   21.6870 C   0  0  0  0  0  0  0  0  0  0  0  0
    3.3027    0.9909   22.7530 C   0  0  0  0  0  0  0  0  0  0  0  0
    3.3653    1.6873   20.4401 C   0  0  0  0  0  0  0  0  0  0  0  0
    2.5001    1.0075   24.3414 Cl  0  0  0  0  0  0  0  0  0  0  0  0
    4.4833    0.2746   22.5863 C   0  0  0  0  0  0  0  0  0  0  0  0
    4.5457    0.9703   20.2764 C   0  0  0  0  0  0  0  0  0  0  0  0
    5.1022    0.2683   21.3406 C   0  0  0  0  0  0  0  0  0  0  0  0
    5.1653    0.9667   19.0209 N   0  0  0  0  0  0  0  0  0  0  0  0
    6.3924   -0.5146   21.1586 C   0  0  0  0  0  0  0  0  0  0  0  0
    5.2338    1.9896   18.1926 N   0  0  0  0  0  0  0  0  0  0  0  0
    5.7903   -0.1043   18.4522 C   0  0  0  0  0  0  0  0  0  0  0  0
    7.0039   -0.7634   22.4721 N   0  0  0  0  0  0  0  0  0  0  0  0
    5.8904    1.6095   17.1142 C   0  0  0  0  0  0  0  0  0  0  0  0
    6.2311    0.2964   17.2786 N   0  0  0  0  0  0  0  0  0  0  0  0
    6.6978   -1.8591   23.1474 C   0  0  0  0  0  0  0  0  0  0  0  0
    5.9009   -2.6702   22.6759 O   0  0  0  0  0  0  0  0  0  0  0  0
    7.3300   -2.1164   24.5049 C   0  0  1  0  0  0  0  0  0  0  0  0
    7.1521   -0.8683   25.3521 C   0  0  0  0  0  0  0  0  0  0  0  0
    6.6925   -3.2887   25.2395 C   0  0  0  0  0  0  0  0  0  0  0  0
    5.7793   -0.6367   25.6501 O   0  0  0  0  0  0  0  0  0  0  0  0
    5.3259   -2.9415   25.8025 C   0  0  0  0  0  0  0  0  0  0  0  0
    4.9295   -1.6252   26.0179 C   0  0  0  0  0  0  0  0  0  0  0  0
    4.4631   -3.9808   26.1280 C   0  0  0  0  0  0  0  0  0  0  0  0
    3.7241   -1.4049   26.5749 N   0  0  0  0  0  0  0  0  0  0  0  0
    3.2231   -3.7153   26.6968 C   0  0  0  0  0  0  0  0  0  0  0  0
    2.8723   -2.3870   26.9155 C   0  0  0  0  0  0  0  0  0  0  0  0
    2.9661    2.1911   19.6739 H   0  0  0  0  0  0  0  0  0  0  0  0
    4.8820   -0.2296   23.3522 H   0  0  0  0  0  0  0  0  0  0  0  0
    7.0249    0.0124   20.5909 H   0  0  0  0  0  0  0  0  0  0  0  0
    6.1927   -1.3873   20.7132 H   0  0  0  0  0  0  0  0  0  0  0  0
    5.8934   -1.0162   18.8495 H   0  0  0  0  0  0  0  0  0  0  0  0
    7.6514   -0.1045   22.8551 H   0  0  0  0  0  0  0  0  0  0  0  0
    6.1009    2.1792   16.3196 H   0  0  0  0  0  0  0  0  0  0  0  0
    8.3064   -2.2955   24.3844 H   0  0  0  0  0  0  0  0  0  0  0  0
    7.5142   -0.0813   24.8526 H   0  0  0  0  0  0  0  0  0  0  0  0
    7.6568   -0.9809   26.2080 H   0  0  0  0  0  0  0  0  0  0  0  0
    7.2914   -3.5601   25.9929 H   0  0  0  0  0  0  0  0  0  0  0  0
    6.5930   -4.0521   24.6013 H   0  0  0  0  0  0  0  0  0  0  0  0
    4.7361   -4.9266   25.9517 H   0  0  0  0  0  0  0  0  0  0  0  0
    2.6003   -4.4583   26.9420 H   0  0  0  0  0  0  0  0  0  0  0  0
    1.9881   -2.1634   27.3255 H   0  0  0  0  0  0  0  0  0  0  0  0
  1  2  1  0  0  0  0
  2  3  2  0  0  0  0
  2  4  1  0  0  0  0
  3  5  1  0  0  0  0
  3  6  1  0  0  0  0
  4  7  2  0  0  0  0
  6  8  2  0  0  0  0
  7  9  1  0  0  0  0
  8 10  1  0  0  0  0
  9 11  1  0  0  0  0
  9 12  1  0  0  0  0
 10 13  1  0  0  0  0
 11 14  2  0  0  0  0
 12 15  2  0  0  0  0
 13 16  1  0  0  0  0
 16 17  2  0  0  0  0
 16 18  1  0  0  0  0
 18 19  1  0  0  0  0
 18 20  1  0  0  0  0
 19 21  1  0  0  0  0
 20 22  1  0  0  0  0
 21 23  1  0  0  0  0
 22 24  1  0  0  0  0
 23 25  1  0  0  0  0
 24 26  2  0  0  0  0
 25 27  2  0  0  0  0
  7  8  1  0  0  0  0
 14 15  1  0  0  0  0
 22 23  2  0  0  0  0
 26 27  1  0  0  0  0
  4 28  1  0  0  0  0
  6 29  1  0  0  0  0
 10 30  1  0  0  0  0
 10 31  1  0  0  0  0
 12 32  1  0  0  0  0
 13 33  1  0  0  0  0
 14 34  1  0  0  0  0
 18 35  1  0  0  0  0
 19 36  1  0  0  0  0
 19 37  1  0  0  0  0
 20 38  1  0  0  0  0
 20 39  1  0  0  0  0
 24 40  1  0  0  0  0
 26 41  1  0  0  0  0
 27 42  1  0  0  0  0
M  END
> <BIOSOLVEIT.HYDE_ESTIMATED_AFFINITY_LOWER_BOUNDARY [nM]>
18232941.256275

> <BIOSOLVEIT.HYDE_ESTIMATED_AFFINITY_UPPER_BOUNDARY [nM]>
1811550515.491223

> <BIOSOLVEIT.HYDE_LIGAND_EFFICIENCY range: ++, +, 0, -, -->
--

> <BIOSOLVEIT.HYDE_LIGAND_LIPOPHILIC_EFFICIENCY range: ++, +, 0, -, -->
--

> <BIOSOLVEIT.INTER_CLASH range: red, yellow, green>
green

> <BIOSOLVEIT.INTRA_CLASH range: red, yellow, green>
red

> <BIOSOLVEIT.LOGP>
2.8366

> <BIOSOLVEIT.MOLECULAR WEIGHT>
404.256

> <BIOSOLVEIT.MOLECULE_CHECKSUM>
LTQuMjI3MDU7MC4xNTY1NTc=

> <BIOSOLVEIT.TORSION_QUALITY range: red, yellow, green, not rotatable>
green

> <BIOSOLVEIT.TPSA>
81.93

> <BIOSOLVEIT.SEESAR_FAVORITE>
favorite

> <smc_score>
0.688

> <QED_score>
0.723

> <distance>
0.722

> <SimilarityPheSA_1>
0.638

> <Smiles>
O=C(NCc1cc(Cl)c(Cl)cc1-n1cncn1)C1COc2ncccc2C1

> <Similarity_SkelSpheres>
0.673

> <Cluster No>
340.0

> <QueryID>
MAT-POS-bb423b95-1

> <SimilarityPheSA>
0.6383

> <Postera series>
3-aminopyridine-like

> <PDB_code>
Mpro-x11542

> <Approach>
DGM_exploratory_RL

> <ID>
20210628_769

> <SimilarityPheSA_2>
0.669

> <OPTIBRIUM.logD>
2.00917

> <OPTIBRIUM.BBB category>
-

> <OPTIBRIUM.logP>
2.00917

> <OPTIBRIUM.P-gp category>
no

> <OPTIBRIUM.logS>
1.44986

> <OPTIBRIUM.HIA category>
+

> <OPTIBRIUM.PPB90 category>
high

> <OPTIBRIUM.2D6 affinity category>
high

> <OPTIBRIUM.hERG pIC50>
4.44074

> <OPTIBRIUM.2C9 pKi>
5.33378

> <OPTIBRIUM.BBB log([brain]:[blood])>
-0.659436

> <OPTIBRIUM.logS @ pH7.4>
1.44986

$$$$
Compound 1499_1_03
haSeeSAR  07122114383D 1   1.00000     0.00000     0
SeeSAR 11.0.2 hazemaj
 42 45  0  0  0  0            999 V2000
    1.3751    2.4799   22.1029 Cl  0  0  0  0  0  0  0  0  0  0  0  0
    2.8913    1.5960   21.8068 C   0  0  0  0  0  0  0  0  0  0  0  0
    3.4944    0.8948   22.8453 C   0  0  0  0  0  0  0  0  0  0  0  0
    3.4621    1.6131   20.5384 C   0  0  0  0  0  0  0  0  0  0  0  0
    2.7496    0.8837   24.4616 Cl  0  0  0  0  0  0  0  0  0  0  0  0
    4.6796    0.1996   22.6293 C   0  0  0  0  0  0  0  0  0  0  0  0
    4.6474    0.9174   20.3254 C   0  0  0  0  0  0  0  0  0  0  0  0
    5.2532    0.2150   21.3622 C   0  0  0  0  0  0  0  0  0  0  0  0
    5.2212    0.9353   19.0485 N   0  0  0  0  0  0  0  0  0  0  0  0
    6.5485   -0.5448   21.1264 C   0  0  0  0  0  0  0  0  0  0  0  0
    5.2444    1.9672   18.2288 N   0  0  0  0  0  0  0  0  0  0  0  0
    5.8412   -0.1204   18.4469 C   0  0  0  0  0  0  0  0  0  0  0  0
    7.1039   -0.9787   22.4164 N   0  0  0  0  0  0  0  0  0  0  0  0
    5.8672    1.6075   17.1236 C   0  0  0  0  0  0  0  0  0  0  0  0
    6.2333    0.2983   17.2624 N   0  0  0  0  0  0  0  0  0  0  0  0
    6.6668   -2.0909   22.9842 C   0  0  0  0  0  0  0  0  0  0  0  0
    5.7951   -2.7623   22.4324 O   0  0  0  0  0  0  0  0  0  0  0  0
    7.2410   -2.5394   24.3177 C   0  0  1  0  0  0  0  0  0  0  0  0
    6.1224   -2.9210   25.2828 C   0  0  0  0  0  0  0  0  0  0  0  0
    8.2819   -3.6364   24.1279 C   0  0  0  0  0  0  0  0  0  0  0  0
    6.0075   -4.3232   25.5128 O   0  0  0  0  0  0  0  0  0  0  0  0
    7.5897   -4.9719   23.9000 C   0  0  0  0  0  0  0  0  0  0  0  0
    6.4420   -5.2560   24.6316 C   0  0  0  0  0  0  0  0  0  0  0  0
    8.0642   -5.9070   22.9833 C   0  0  0  0  0  0  0  0  0  0  0  0
    5.8107   -6.4286   24.4353 N   0  0  0  0  0  0  0  0  0  0  0  0
    7.3862   -7.1069   22.7962 C   0  0  0  0  0  0  0  0  0  0  0  0
    6.2425   -7.3416   23.5520 C   0  0  0  0  0  0  0  0  0  0  0  0
    3.0275    2.1171   19.7921 H   0  0  0  0  0  0  0  0  0  0  0  0
    5.1139   -0.3049   23.3755 H   0  0  0  0  0  0  0  0  0  0  0  0
    7.2052    0.0512   20.6642 H   0  0  0  0  0  0  0  0  0  0  0  0
    6.3661   -1.3456   20.5557 H   0  0  0  0  0  0  0  0  0  0  0  0
    5.9723   -1.0344   18.8309 H   0  0  0  0  0  0  0  0  0  0  0  0
    7.8121   -0.4333   22.8647 H   0  0  0  0  0  0  0  0  0  0  0  0
    6.0402    2.1879   16.3279 H   0  0  0  0  0  0  0  0  0  0  0  0
    7.7136   -1.7519   24.7132 H   0  0  0  0  0  0  0  0  0  0  0  0
    5.2563   -2.5923   24.9060 H   0  0  0  0  0  0  0  0  0  0  0  0
    6.2964   -2.4719   26.1592 H   0  0  0  0  0  0  0  0  0  0  0  0
    8.8550   -3.6950   24.9453 H   0  0  0  0  0  0  0  0  0  0  0  0
    8.8523   -3.4190   23.3359 H   0  0  0  0  0  0  0  0  0  0  0  0
    8.8937   -5.7153   22.4588 H   0  0  0  0  0  0  0  0  0  0  0  0
    7.7125   -7.7830   22.1355 H   0  0  0  0  0  0  0  0  0  0  0  0
    5.7381   -8.1974   23.4362 H   0  0  0  0  0  0  0  0  0  0  0  0
  1  2  1  0  0  0  0
  2  3  2  0  0  0  0
  2  4  1  0  0  0  0
  3  5  1  0  0  0  0
  3  6  1  0  0  0  0
  4  7  2  0  0  0  0
  6  8  2  0  0  0  0
  7  9  1  0  0  0  0
  8 10  1  0  0  0  0
  9 11  1  0  0  0  0
  9 12  1  0  0  0  0
 10 13  1  0  0  0  0
 11 14  2  0  0  0  0
 12 15  2  0  0  0  0
 13 16  1  0  0  0  0
 16 17  2  0  0  0  0
 16 18  1  0  0  0  0
 18 19  1  0  0  0  0
 18 20  1  0  0  0  0
 19 21  1  0  0  0  0
 20 22  1  0  0  0  0
 21 23  1  0  0  0  0
 22 24  1  0  0  0  0
 23 25  1  0  0  0  0
 24 26  2  0  0  0  0
 25 27  2  0  0  0  0
  7  8  1  0  0  0  0
 14 15  1  0  0  0  0
 22 23  2  0  0  0  0
 26 27  1  0  0  0  0
  4 28  1  0  0  0  0
  6 29  1  0  0  0  0
 10 30  1  0  0  0  0
 10 31  1  0  0  0  0
 12 32  1  0  0  0  0
 13 33  1  0  0  0  0
 14 34  1  0  0  0  0
 18 35  1  0  0  0  0
 19 36  1  0  0  0  0
 19 37  1  0  0  0  0
 20 38  1  0  0  0  0
 20 39  1  0  0  0  0
 24 40  1  0  0  0  0
 26 41  1  0  0  0  0
 27 42  1  0  0  0  0
M  END
> <BIOSOLVEIT.HYDE_ESTIMATED_AFFINITY_LOWER_BOUNDARY [nM]>
22079394.855334

> <BIOSOLVEIT.HYDE_ESTIMATED_AFFINITY_UPPER_BOUNDARY [nM]>
2193718422.591249

> <BIOSOLVEIT.HYDE_LIGAND_EFFICIENCY range: ++, +, 0, -, -->
--

> <BIOSOLVEIT.HYDE_LIGAND_LIPOPHILIC_EFFICIENCY range: ++, +, 0, -, -->
--

> <BIOSOLVEIT.INTER_CLASH range: red, yellow, green>
green

> <BIOSOLVEIT.INTRA_CLASH range: red, yellow, green>
red

> <BIOSOLVEIT.LOGP>
2.8366

> <BIOSOLVEIT.MOLECULAR WEIGHT>
404.256

> <BIOSOLVEIT.MOLECULE_CHECKSUM>
LTMuNzUyNTQ7MC4xMzg5ODM=

> <BIOSOLVEIT.TORSION_QUALITY range: red, yellow, green, not rotatable>
green

> <BIOSOLVEIT.TPSA>
81.93

> <BIOSOLVEIT.SEESAR_FAVORITE>
favorite

> <smc_score>
0.688

> <QED_score>
0.723

> <distance>
0.722

> <SimilarityPheSA_1>
0.638

> <Smiles>
O=C(NCc1cc(Cl)c(Cl)cc1-n1cncn1)C1COc2ncccc2C1

> <Similarity_SkelSpheres>
0.673

> <Cluster No>
340.0

> <QueryID>
MAT-POS-bb423b95-1

> <SimilarityPheSA>
0.6383

> <Postera series>
3-aminopyridine-like

> <PDB_code>
Mpro-x11542

> <Approach>
DGM_exploratory_RL

> <ID>
20210628_769

> <SimilarityPheSA_2>
0.669

> <OPTIBRIUM.logD>
2.00917

> <OPTIBRIUM.BBB category>
-

> <OPTIBRIUM.logP>
2.00917

> <OPTIBRIUM.P-gp category>
no

> <OPTIBRIUM.logS>
1.44986

> <OPTIBRIUM.HIA category>
+

> <OPTIBRIUM.PPB90 category>
high

> <OPTIBRIUM.2D6 affinity category>
high

> <OPTIBRIUM.hERG pIC50>
4.44074

> <OPTIBRIUM.2C9 pKi>
5.33378

> <OPTIBRIUM.BBB log([brain]:[blood])>
-0.659436

> <OPTIBRIUM.logS @ pH7.4>
1.44986

$$$$
Compound 1499_1_10
haSeeSAR  07122114383D 1   1.00000     0.00000     0
SeeSAR 11.0.2 hazemaj
 42 45  0  0  0  0            999 V2000
    1.2567    2.5325   21.9742 Cl  0  0  0  0  0  0  0  0  0  0  0  0
    2.7897    1.6612   21.7310 C   0  0  0  0  0  0  0  0  0  0  0  0
    3.3790    0.9922   22.7984 C   0  0  0  0  0  0  0  0  0  0  0  0
    3.3871    1.6556   20.4750 C   0  0  0  0  0  0  0  0  0  0  0  0
    2.6000    1.0096   24.3985 Cl  0  0  0  0  0  0  0  0  0  0  0  0
    4.5769    0.3072   22.6240 C   0  0  0  0  0  0  0  0  0  0  0  0
    4.5851    0.9702   20.3035 C   0  0  0  0  0  0  0  0  0  0  0  0
    5.1772    0.3001   21.3692 C   0  0  0  0  0  0  0  0  0  0  0  0
    5.1857    0.9654   19.0390 N   0  0  0  0  0  0  0  0  0  0  0  0
    6.4864   -0.4485   21.1788 C   0  0  0  0  0  0  0  0  0  0  0  0
    5.2320    1.9845   18.2043 N   0  0  0  0  0  0  0  0  0  0  0  0
    5.8123   -0.1027   18.4666 C   0  0  0  0  0  0  0  0  0  0  0  0
    7.0218   -0.8408   22.4905 N   0  0  0  0  0  0  0  0  0  0  0  0
    5.8758    1.6045   17.1181 C   0  0  0  0  0  0  0  0  0  0  0  0
    6.2316    0.2956   17.2845 N   0  0  0  0  0  0  0  0  0  0  0  0
    6.6091   -1.9582   23.0661 C   0  0  0  0  0  0  0  0  0  0  0  0
    5.7767   -2.6694   22.5033 O   0  0  0  0  0  0  0  0  0  0  0  0
    7.1625   -2.3636   24.4219 C   0  0  1  0  0  0  0  0  0  0  0  0
    6.6508   -1.4699   25.5432 C   0  0  0  0  0  0  0  0  0  0  0  0
    6.7337   -3.7872   24.7425 C   0  0  0  0  0  0  0  0  0  0  0  0
    7.2911   -1.8739   26.7472 O   0  0  0  0  0  0  0  0  0  0  0  0
    7.1173   -4.1413   26.1655 C   0  0  0  0  0  0  0  0  0  0  0  0
    7.3593   -3.1665   27.1261 C   0  0  0  0  0  0  0  0  0  0  0  0
    7.1980   -5.4884   26.4887 C   0  0  0  0  0  0  0  0  0  0  0  0
    7.6451   -3.5452   28.3811 N   0  0  0  0  0  0  0  0  0  0  0  0
    7.5075   -5.8477   27.7959 C   0  0  0  0  0  0  0  0  0  0  0  0
    7.7270   -4.8386   28.7287 C   0  0  0  0  0  0  0  0  0  0  0  0
    2.9623    2.1365   19.7079 H   0  0  0  0  0  0  0  0  0  0  0  0
    5.0014   -0.1739   23.3909 H   0  0  0  0  0  0  0  0  0  0  0  0
    7.1444    0.1437   20.7137 H   0  0  0  0  0  0  0  0  0  0  0  0
    6.3254   -1.2664   20.6263 H   0  0  0  0  0  0  0  0  0  0  0  0
    5.9301   -1.0114   18.8673 H   0  0  0  0  0  0  0  0  0  0  0  0
    7.6979   -0.2630   22.9476 H   0  0  0  0  0  0  0  0  0  0  0  0
    6.0689    2.1717   16.3174 H   0  0  0  0  0  0  0  0  0  0  0  0
    8.1612   -2.3192   24.3959 H   0  0  0  0  0  0  0  0  0  0  0  0
    5.6601   -1.5715   25.6341 H   0  0  0  0  0  0  0  0  0  0  0  0
    6.8712   -0.5150   25.3445 H   0  0  0  0  0  0  0  0  0  0  0  0
    7.1853   -4.4183   24.1118 H   0  0  0  0  0  0  0  0  0  0  0  0
    5.7421   -3.8649   24.6387 H   0  0  0  0  0  0  0  0  0  0  0  0
    7.0361   -6.1888   25.7935 H   0  0  0  0  0  0  0  0  0  0  0  0
    7.5710   -6.8101   28.0598 H   0  0  0  0  0  0  0  0  0  0  0  0
    7.9495   -5.0812   29.6729 H   0  0  0  0  0  0  0  0  0  0  0  0
  1  2  1  0  0  0  0
  2  3  2  0  0  0  0
  2  4  1  0  0  0  0
  3  5  1  0  0  0  0
  3  6  1  0  0  0  0
  4  7  2  0  0  0  0
  6  8  2  0  0  0  0
  7  9  1  0  0  0  0
  8 10  1  0  0  0  0
  9 11  1  0  0  0  0
  9 12  1  0  0  0  0
 10 13  1  0  0  0  0
 11 14  2  0  0  0  0
 12 15  2  0  0  0  0
 13 16  1  0  0  0  0
 16 17  2  0  0  0  0
 16 18  1  0  0  0  0
 18 19  1  0  0  0  0
 18 20  1  0  0  0  0
 19 21  1  0  0  0  0
 20 22  1  0  0  0  0
 21 23  1  0  0  0  0
 22 24  1  0  0  0  0
 23 25  1  0  0  0  0
 24 26  2  0  0  0  0
 25 27  2  0  0  0  0
  7  8  1  0  0  0  0
 14 15  1  0  0  0  0
 22 23  2  0  0  0  0
 26 27  1  0  0  0  0
  4 28  1  0  0  0  0
  6 29  1  0  0  0  0
 10 30  1  0  0  0  0
 10 31  1  0  0  0  0
 12 32  1  0  0  0  0
 13 33  1  0  0  0  0
 14 34  1  0  0  0  0
 18 35  1  0  0  0  0
 19 36  1  0  0  0  0
 19 37  1  0  0  0  0
 20 38  1  0  0  0  0
 20 39  1  0  0  0  0
 24 40  1  0  0  0  0
 26 41  1  0  0  0  0
 27 42  1  0  0  0  0
M  END
> <BIOSOLVEIT.HYDE_ESTIMATED_AFFINITY_LOWER_BOUNDARY [nM]>
30316947.193759

> <BIOSOLVEIT.HYDE_ESTIMATED_AFFINITY_UPPER_BOUNDARY [nM]>
3012167951.677625

> <BIOSOLVEIT.HYDE_LIGAND_EFFICIENCY range: ++, +, 0, -, -->
--

> <BIOSOLVEIT.HYDE_LIGAND_LIPOPHILIC_EFFICIENCY range: ++, +, 0, -, -->
--

> <BIOSOLVEIT.INTER_CLASH range: red, yellow, green>
green

> <BIOSOLVEIT.INTRA_CLASH range: red, yellow, green>
red

> <BIOSOLVEIT.LOGP>
2.8366

> <BIOSOLVEIT.MOLECULAR WEIGHT>
404.256

> <BIOSOLVEIT.MOLECULE_CHECKSUM>
LTIuOTY2NTU7MC4xMDk4NzI=

> <BIOSOLVEIT.TORSION_QUALITY range: red, yellow, green, not rotatable>
green

> <BIOSOLVEIT.TPSA>
81.93

> <BIOSOLVEIT.SEESAR_FAVORITE>
favorite

> <smc_score>
0.688

> <QED_score>
0.723

> <distance>
0.722

> <SimilarityPheSA_1>
0.638

> <Smiles>
O=C(NCc1cc(Cl)c(Cl)cc1-n1cncn1)C1COc2ncccc2C1

> <Similarity_SkelSpheres>
0.673

> <Cluster No>
340.0

> <QueryID>
MAT-POS-bb423b95-1

> <SimilarityPheSA>
0.6383

> <Postera series>
3-aminopyridine-like

> <PDB_code>
Mpro-x11542

> <Approach>
DGM_exploratory_RL

> <ID>
20210628_769

> <SimilarityPheSA_2>
0.669

> <OPTIBRIUM.logD>
2.00917

> <OPTIBRIUM.BBB category>
-

> <OPTIBRIUM.logP>
2.00917

> <OPTIBRIUM.P-gp category>
no

> <OPTIBRIUM.logS>
1.44986

> <OPTIBRIUM.HIA category>
+

> <OPTIBRIUM.PPB90 category>
high

> <OPTIBRIUM.2D6 affinity category>
high

> <OPTIBRIUM.hERG pIC50>
4.44074

> <OPTIBRIUM.2C9 pKi>
5.33378

> <OPTIBRIUM.BBB log([brain]:[blood])>
-0.659436

> <OPTIBRIUM.logS @ pH7.4>
1.44986

$$$$
Compound 1499_1_01
haSeeSAR  07122114383D 1   1.00000     0.00000     0
SeeSAR 11.0.2 hazemaj
 42 45  0  0  0  0            999 V2000
    1.3030    2.4833   22.0487 Cl  0  0  0  0  0  0  0  0  0  0  0  0
    2.8338    1.6130   21.7902 C   0  0  0  0  0  0  0  0  0  0  0  0
    3.4302    0.9378   22.8498 C   0  0  0  0  0  0  0  0  0  0  0  0
    3.4225    1.6143   20.5301 C   0  0  0  0  0  0  0  0  0  0  0  0
    2.6623    0.9465   24.4552 Cl  0  0  0  0  0  0  0  0  0  0  0  0
    4.6267    0.2534   22.6632 C   0  0  0  0  0  0  0  0  0  0  0  0
    4.6191    0.9294   20.3466 C   0  0  0  0  0  0  0  0  0  0  0  0
    5.2182    0.2531   21.4043 C   0  0  0  0  0  0  0  0  0  0  0  0
    5.2110    0.9315   19.0778 N   0  0  0  0  0  0  0  0  0  0  0  0
    6.5259   -0.4948   21.2007 C   0  0  0  0  0  0  0  0  0  0  0  0
    5.2475    1.9536   18.2464 N   0  0  0  0  0  0  0  0  0  0  0  0
    5.8380   -0.1320   18.4975 C   0  0  0  0  0  0  0  0  0  0  0  0
    7.0314   -0.9606   22.5001 N   0  0  0  0  0  0  0  0  0  0  0  0
    5.8853    1.5803   17.1545 C   0  0  0  0  0  0  0  0  0  0  0  0
    6.2474    0.2722   17.3139 N   0  0  0  0  0  0  0  0  0  0  0  0
    6.5856   -2.0945   23.0155 C   0  0  0  0  0  0  0  0  0  0  0  0
    5.7474   -2.7597   22.4069 O   0  0  0  0  0  0  0  0  0  0  0  0
    7.1083   -2.5760   24.3587 C   0  0  1  0  0  0  0  0  0  0  0  0
    5.9348   -3.1236   25.1524 C   0  0  0  0  0  0  0  0  0  0  0  0
    8.1518   -3.6773   24.2247 C   0  0  0  0  0  0  0  0  0  0  0  0
    5.4051   -4.2989   24.5482 O   0  0  0  0  0  0  0  0  0  0  0  0
    7.5355   -5.0121   23.8456 C   0  0  0  0  0  0  0  0  0  0  0  0
    6.1869   -5.2868   24.0510 C   0  0  0  0  0  0  0  0  0  0  0  0
    8.3595   -5.9873   23.2974 C   0  0  0  0  0  0  0  0  0  0  0  0
    5.7317   -6.5150   23.7413 N   0  0  0  0  0  0  0  0  0  0  0  0
    7.8532   -7.2433   22.9847 C   0  0  0  0  0  0  0  0  0  0  0  0
    6.5044   -7.4855   23.2244 C   0  0  0  0  0  0  0  0  0  0  0  0
    2.9928    2.0995   19.7686 H   0  0  0  0  0  0  0  0  0  0  0  0
    5.0561   -0.2322   23.4245 H   0  0  0  0  0  0  0  0  0  0  0  0
    7.1974    0.1159   20.7812 H   0  0  0  0  0  0  0  0  0  0  0  0
    6.3705   -1.2809   20.6023 H   0  0  0  0  0  0  0  0  0  0  0  0
    5.9621   -1.0416   18.8942 H   0  0  0  0  0  0  0  0  0  0  0  0
    7.7123   -0.4202   22.9944 H   0  0  0  0  0  0  0  0  0  0  0  0
    6.0706    2.1510   16.3546 H   0  0  0  0  0  0  0  0  0  0  0  0
    7.5071   -1.8032   24.8523 H   0  0  0  0  0  0  0  0  0  0  0  0
    5.2177   -2.4280   25.1956 H   0  0  0  0  0  0  0  0  0  0  0  0
    6.2422   -3.3435   26.0783 H   0  0  0  0  0  0  0  0  0  0  0  0
    8.6262   -3.7789   25.0991 H   0  0  0  0  0  0  0  0  0  0  0  0
    8.8084   -3.4140   23.5179 H   0  0  0  0  0  0  0  0  0  0  0  0
    9.3236   -5.7841   23.1265 H   0  0  0  0  0  0  0  0  0  0  0  0
    8.4419   -7.9532   22.5983 H   0  0  0  0  0  0  0  0  0  0  0  0
    6.1106   -8.3798   23.0125 H   0  0  0  0  0  0  0  0  0  0  0  0
  1  2  1  0  0  0  0
  2  3  2  0  0  0  0
  2  4  1  0  0  0  0
  3  5  1  0  0  0  0
  3  6  1  0  0  0  0
  4  7  2  0  0  0  0
  6  8  2  0  0  0  0
  7  9  1  0  0  0  0
  8 10  1  0  0  0  0
  9 11  1  0  0  0  0
  9 12  1  0  0  0  0
 10 13  1  0  0  0  0
 11 14  2  0  0  0  0
 12 15  2  0  0  0  0
 13 16  1  0  0  0  0
 16 17  2  0  0  0  0
 16 18  1  0  0  0  0
 18 19  1  0  0  0  0
 18 20  1  0  0  0  0
 19 21  1  0  0  0  0
 20 22  1  0  0  0  0
 21 23  1  0  0  0  0
 22 24  1  0  0  0  0
 23 25  1  0  0  0  0
 24 26  2  0  0  0  0
 25 27  2  0  0  0  0
  7  8  1  0  0  0  0
 14 15  1  0  0  0  0
 22 23  2  0  0  0  0
 26 27  1  0  0  0  0
  4 28  1  0  0  0  0
  6 29  1  0  0  0  0
 10 30  1  0  0  0  0
 10 31  1  0  0  0  0
 12 32  1  0  0  0  0
 13 33  1  0  0  0  0
 14 34  1  0  0  0  0
 18 35  1  0  0  0  0
 19 36  1  0  0  0  0
 19 37  1  0  0  0  0
 20 38  1  0  0  0  0
 20 39  1  0  0  0  0
 24 40  1  0  0  0  0
 26 41  1  0  0  0  0
 27 42  1  0  0  0  0
M  END
> <BIOSOLVEIT.HYDE_ESTIMATED_AFFINITY_LOWER_BOUNDARY [nM]>
692950183.966712

> <BIOSOLVEIT.HYDE_ESTIMATED_AFFINITY_UPPER_BOUNDARY [nM]>
68848697822.825394

> <BIOSOLVEIT.HYDE_LIGAND_EFFICIENCY range: ++, +, 0, -, -->
--

> <BIOSOLVEIT.HYDE_LIGAND_LIPOPHILIC_EFFICIENCY range: ++, +, 0, -, -->
--

> <BIOSOLVEIT.INTER_CLASH range: red, yellow, green>
green

> <BIOSOLVEIT.INTRA_CLASH range: red, yellow, green>
red

> <BIOSOLVEIT.LOGP>
2.8366

> <BIOSOLVEIT.MOLECULAR WEIGHT>
404.256

> <BIOSOLVEIT.MOLECULE_CHECKSUM>
NC43OTA3Mzsw

> <BIOSOLVEIT.TORSION_QUALITY range: red, yellow, green, not rotatable>
green

> <BIOSOLVEIT.TPSA>
81.93

> <BIOSOLVEIT.SEESAR_FAVORITE>
favorite

> <smc_score>
0.688

> <QED_score>
0.723

> <distance>
0.722

> <SimilarityPheSA_1>
0.638

> <Smiles>
O=C(NCc1cc(Cl)c(Cl)cc1-n1cncn1)C1COc2ncccc2C1

> <Similarity_SkelSpheres>
0.673

> <Cluster No>
340.0

> <QueryID>
MAT-POS-bb423b95-1

> <SimilarityPheSA>
0.6383

> <Postera series>
3-aminopyridine-like

> <PDB_code>
Mpro-x11542

> <Approach>
DGM_exploratory_RL

> <ID>
20210628_769

> <SimilarityPheSA_2>
0.669

> <OPTIBRIUM.logD>
2.00917

> <OPTIBRIUM.BBB category>
-

> <OPTIBRIUM.logP>
2.00917

> <OPTIBRIUM.P-gp category>
no

> <OPTIBRIUM.logS>
1.44986

> <OPTIBRIUM.HIA category>
+

> <OPTIBRIUM.PPB90 category>
high

> <OPTIBRIUM.2D6 affinity category>
high

> <OPTIBRIUM.hERG pIC50>
4.44074

> <OPTIBRIUM.2C9 pKi>
5.33378

> <OPTIBRIUM.BBB log([brain]:[blood])>
-0.659436

> <OPTIBRIUM.logS @ pH7.4>
1.44986

$$$$
Compound 244_1_1
haSeeSAR  07122114383D 1   1.00000     0.00000     0
SeeSAR 11.0.2 hazemaj
 44 46  0  0  0  0            999 V2000
   12.8061    2.6773   23.3176 Cl  0  0  0  0  0  0  0  0  0  0  0  0
   12.6338    0.9351   22.9962 C   0  0  0  0  0  0  0  0  0  0  0  0
   13.7042    0.2198   22.4700 C   0  0  0  0  0  0  0  0  0  0  0  0
   11.4292    0.2974   23.2722 C   0  0  0  0  0  0  0  0  0  0  0  0
   15.2398    1.0499   22.1220 Cl  0  0  0  0  0  0  0  0  0  0  0  0
   13.5880   -1.1423   22.2118 C   0  0  0  0  0  0  0  0  0  0  0  0
   11.3168   -1.0641   23.0128 C   0  0  0  0  0  0  0  0  0  0  0  0
   12.3846   -1.7839   22.4864 C   0  0  0  0  0  0  0  0  0  0  0  0
   10.0623   -1.7329   23.2993 C   0  0  0  0  0  0  0  0  0  0  0  0
   10.0573   -2.9223   23.6164 O   0  0  0  0  0  0  0  0  0  0  0  0
    8.8553   -1.0248   23.2150 N   0  0  0  0  0  0  0  0  0  0  0  0
    7.5216   -1.5703   23.4755 C   0  0  0  0  0  0  0  0  0  0  0  0
    8.7014    0.3913   22.8626 C   0  0  0  0  0  0  0  0  0  0  0  0
    6.5361   -0.4365   23.2910 C   0  0  1  0  0  0  0  0  0  0  0  0
    7.4015    0.7902   23.5258 C   0  0  0  0  0  0  0  0  0  0  0  0
    5.9380   -0.4306   21.8857 C   0  0  0  0  0  0  0  0  0  0  0  0
    5.3029   -1.4052   21.4829 O   0  0  0  0  0  0  0  0  0  0  0  0
    6.1024    0.6220   21.1012 N   0  0  0  0  0  0  0  0  0  0  0  0
    5.5268    0.6277   19.7486 C   0  0  0  0  0  0  0  0  0  0  0  0
    6.6384    0.7896   18.7258 C   0  0  2  0  0  0  0  0  0  0  0  0
    6.1920    0.8082   17.3783 O   0  0  0  0  0  0  0  0  0  0  0  0
    7.5796   -0.4038   18.7035 C   0  0  0  0  0  0  0  0  0  0  0  0
    5.9344   -0.5266   16.9810 C   0  0  0  0  0  0  0  0  0  0  0  0
    6.8048   -1.3965   17.8674 C   0  0  0  0  0  0  0  0  0  0  0  0
   10.6576    0.8089   23.6504 H   0  0  0  0  0  0  0  0  0  0  0  0
   14.3597   -1.6536   21.8336 H   0  0  0  0  0  0  0  0  0  0  0  0
   12.2871   -2.7625   22.3053 H   0  0  0  0  0  0  0  0  0  0  0  0
    7.4706   -1.9209   24.4106 H   0  0  0  0  0  0  0  0  0  0  0  0
    7.3206   -2.3083   22.8313 H   0  0  0  0  0  0  0  0  0  0  0  0
    8.6454    0.5074   21.8709 H   0  0  0  0  0  0  0  0  0  0  0  0
    9.4635    0.9318   23.2190 H   0  0  0  0  0  0  0  0  0  0  0  0
    5.8115   -0.4889   23.9782 H   0  0  0  0  0  0  0  0  0  0  0  0
    7.0071    1.6010   23.0934 H   0  0  0  0  0  0  0  0  0  0  0  0
    7.5300    0.9624   24.5024 H   0  0  0  0  0  0  0  0  0  0  0  0
    6.6183    1.4137   21.4284 H   0  0  0  0  0  0  0  0  0  0  0  0
    4.8825    1.3877   19.6638 H   0  0  0  0  0  0  0  0  0  0  0  0
    5.0478   -0.2350   19.5866 H   0  0  0  0  0  0  0  0  0  0  0  0
    7.1560    1.6228   18.9204 H   0  0  0  0  0  0  0  0  0  0  0  0
    7.7440   -0.7547   19.6253 H   0  0  0  0  0  0  0  0  0  0  0  0
    8.4526   -0.1706   18.2750 H   0  0  0  0  0  0  0  0  0  0  0  0
    6.1767   -0.6567   16.0195 H   0  0  0  0  0  0  0  0  0  0  0  0
    4.9687   -0.7496   17.1145 H   0  0  0  0  0  0  0  0  0  0  0  0
    6.2437   -1.9879   18.4466 H   0  0  0  0  0  0  0  0  0  0  0  0
    7.4233   -1.9580   17.3177 H   0  0  0  0  0  0  0  0  0  0  0  0
  1  2  1  0  0  0  0
  2  3  2  0  0  0  0
  2  4  1  0  0  0  0
  3  5  1  0  0  0  0
  3  6  1  0  0  0  0
  4  7  2  0  0  0  0
  6  8  2  0  0  0  0
  7  9  1  0  0  0  0
  9 10  2  0  0  0  0
  9 11  1  0  0  0  0
 11 12  1  0  0  0  0
 11 13  1  0  0  0  0
 12 14  1  0  0  0  0
 13 15  1  0  0  0  0
 14 16  1  0  0  0  0
 16 17  2  0  0  0  0
 16 18  1  0  0  0  0
 18 19  1  0  0  0  0
 19 20  1  0  0  0  0
 20 21  1  0  0  0  0
 20 22  1  0  0  0  0
 21 23  1  0  0  0  0
 22 24  1  0  0  0  0
  7  8  1  0  0  0  0
 14 15  1  0  0  0  0
 23 24  1  0  0  0  0
  4 25  1  0  0  0  0
  6 26  1  0  0  0  0
  8 27  1  0  0  0  0
 12 28  1  0  0  0  0
 12 29  1  0  0  0  0
 13 30  1  0  0  0  0
 13 31  1  0  0  0  0
 14 32  1  0  0  0  0
 15 33  1  0  0  0  0
 15 34  1  0  0  0  0
 18 35  1  0  0  0  0
 19 36  1  0  0  0  0
 19 37  1  0  0  0  0
 20 38  1  0  0  0  0
 22 39  1  0  0  0  0
 22 40  1  0  0  0  0
 23 41  1  0  0  0  0
 23 42  1  0  0  0  0
 24 43  1  0  0  0  0
 24 44  1  0  0  0  0
M  END
> <BIOSOLVEIT.INTER_CLASH range: red, yellow, green>
red

> <BIOSOLVEIT.INTRA_CLASH range: red, yellow, green>
red

> <BIOSOLVEIT.LOGP>
2.7507

> <BIOSOLVEIT.MOLECULAR WEIGHT>
371.262

> <BIOSOLVEIT.TORSION_QUALITY range: red, yellow, green, not rotatable>
green

> <BIOSOLVEIT.TPSA>
58.64

> <BIOSOLVEIT.SEESAR_FAVORITE>
favorite

> <smc_score>
0.688

> <QED_score>
0.886

> <distance>
0.705

> <SimilarityPheSA_1>
0.672

> <Smiles>
O=C(NCC1CCCO1)C1CCN(C(=O)c2ccc(Cl)c(Cl)c2)C1

> <Similarity_SkelSpheres>
0.599

> <Cluster No>
120.0

> <QueryID>
PET-UNK-3c72d439-1

> <SimilarityPheSA>
0.6717

> <Postera series>
3-aminopyridine-like

> <PDB_code>
Mpro-x11810

> <Approach>
DGM_focussed_RL

> <ID>
20210618_243

> <SimilarityPheSA_2>
0.679

> <OPTIBRIUM.logD>
2.23198

> <OPTIBRIUM.BBB category>
-

> <OPTIBRIUM.logP>
2.23198

> <OPTIBRIUM.P-gp category>
yes

> <OPTIBRIUM.logS>
2.43609

> <OPTIBRIUM.HIA category>
+

> <OPTIBRIUM.PPB90 category>
low

> <OPTIBRIUM.2D6 affinity category>
high

> <OPTIBRIUM.hERG pIC50>
4.42225

> <OPTIBRIUM.2C9 pKi>
4.82792

> <OPTIBRIUM.BBB log([brain]:[blood])>
-0.295437

> <OPTIBRIUM.logS @ pH7.4>
2.43609

$$$$
